/*---------------------------------------------------------------------------*\
| =========                 |                                                 |
| \\      /  F ield         | OpenFOAM: The Open Source CFD Toolbox           |
|  \\    /   O peration     | Version:  2306                                  |
|   \\  /    A nd           | Website:  www.openfoam.com                      |
|    \\/     M anipulation  |                                                 |
\*---------------------------------------------------------------------------*/
Build  : _fbf00d6bf2-20230626 OPENFOAM=2306 version=v2306
Arch   : "LSB;label=32;scalar=64"
Exec   : icoFoam
Date   : Nov 01 2023
Time   : 22:55:15
Host   : JCDesktop
PID    : 634
I/O    : uncollated
Case   : /mnt/c/Users/joaoc/Desktop/FoamIberia/cavityOrig
nProcs : 1
trapFpe: Floating point exception trapping enabled (FOAM_SIGFPE).
fileModificationChecking : Monitoring run-time modified files using timeStampMaster (fileModificationSkew 5, maxFileModificationPolls 20)
allowSystemOperations : Allowing user-supplied system call operations

// * * * * * * * * * * * * * * * * * * * * * * * * * * * * * * * * * * * * * //
Create time

Create mesh for time = 0


PISO: Operating solver in PISO mode

Reading transportProperties

Reading field p

Reading field U

Reading/calculating face flux field phi


Starting time loop

Time = 0.0001

Courant Number mean: 0.000227273 max: 0.05
smoothSolver:  Solving for Ux, Initial residual = 1, Final residual = 1.88841e-06, No Iterations 1
smoothSolver:  Solving for Uy, Initial residual = 0, Final residual = 0, No Iterations 0
DICPCG:  Solving for p, Initial residual = 1, Final residual = 7.69535e-07, No Iterations 151
time step continuity errors : sum local = 3.49789e-10, global = -1.07364e-12, cumulative = -1.07364e-12
DICPCG:  Solving for p, Initial residual = 1.48381e-05, Final residual = 7.54368e-07, No Iterations 121
time step continuity errors : sum local = 1.50443e-07, global = -2.83577e-10, cumulative = -2.8465e-10
ExecutionTime = 0.09 s  ClockTime = 0 s

Time = 0.0002

Courant Number mean: 0.120455 max: 0.497143
smoothSolver:  Solving for Ux, Initial residual = 0.430848, Final residual = 2.91794e-07, No Iterations 3
smoothSolver:  Solving for Uy, Initial residual = 0.31834, Final residual = 7.59126e-06, No Iterations 2
DICPCG:  Solving for p, Initial residual = 0.00354178, Final residual = 8.7418e-07, No Iterations 135
time step continuity errors : sum local = 1.57914e-07, global = -3.34329e-10, cumulative = -6.1898e-10
DICPCG:  Solving for p, Initial residual = 0.186093, Final residual = 7.2067e-07, No Iterations 143
time step continuity errors : sum local = 6.49561e-10, global = -3.51115e-13, cumulative = -6.19331e-10
ExecutionTime = 0.11 s  ClockTime = 0 s

Time = 0.0003

Courant Number mean: 0.120455 max: 0.495767
smoothSolver:  Solving for Ux, Initial residual = 0.00109338, Final residual = 2.03191e-07, No Iterations 2
smoothSolver:  Solving for Uy, Initial residual = 0.000841625, Final residual = 3.41149e-07, No Iterations 2
DICPCG:  Solving for p, Initial residual = 0.044192, Final residual = 7.42161e-07, No Iterations 136
time step continuity errors : sum local = 3.80433e-10, global = 7.04381e-13, cumulative = -6.18626e-10
DICPCG:  Solving for p, Initial residual = 0.00298997, Final residual = 6.64307e-07, No Iterations 131
time step continuity errors : sum local = 3.29633e-10, global = 9.26898e-13, cumulative = -6.17699e-10
ExecutionTime = 0.13 s  ClockTime = 0 s

Time = 0.0004

Courant Number mean: 0.120456 max: 0.494783
smoothSolver:  Solving for Ux, Initial residual = 0.00101126, Final residual = 9.97011e-06, No Iterations 1
smoothSolver:  Solving for Uy, Initial residual = 0.000821863, Final residual = 2.98172e-07, No Iterations 2
DICPCG:  Solving for p, Initial residual = 0.0368876, Final residual = 9.75984e-07, No Iterations 135
time step continuity errors : sum local = 4.79039e-10, global = 1.13063e-13, cumulative = -6.17586e-10
DICPCG:  Solving for p, Initial residual = 0.00342819, Final residual = 7.43671e-07, No Iterations 130
time step continuity errors : sum local = 3.68869e-10, global = -7.84907e-13, cumulative = -6.18371e-10
ExecutionTime = 0.14 s  ClockTime = 0 s

Time = 0.0005

Courant Number mean: 0.120456 max: 0.494444
smoothSolver:  Solving for Ux, Initial residual = 0.000995202, Final residual = 9.84155e-06, No Iterations 1
smoothSolver:  Solving for Uy, Initial residual = 0.000845848, Final residual = 2.69376e-07, No Iterations 2
DICPCG:  Solving for p, Initial residual = 0.0430756, Final residual = 9.24819e-07, No Iterations 134
time step continuity errors : sum local = 4.61569e-10, global = 1.38651e-12, cumulative = -6.16985e-10
DICPCG:  Solving for p, Initial residual = 0.00451591, Final residual = 6.83592e-07, No Iterations 131
time step continuity errors : sum local = 3.46786e-10, global = 1.0861e-12, cumulative = -6.15899e-10
ExecutionTime = 0.16 s  ClockTime = 0 s

Time = 0.0006

Courant Number mean: 0.120457 max: 0.495432
smoothSolver:  Solving for Ux, Initial residual = 0.000980953, Final residual = 9.58463e-06, No Iterations 1
smoothSolver:  Solving for Uy, Initial residual = 0.000857118, Final residual = 2.4472e-07, No Iterations 2
DICPCG:  Solving for p, Initial residual = 0.037512, Final residual = 7.10818e-07, No Iterations 134
time step continuity errors : sum local = 3.62505e-10, global = 8.7262e-13, cumulative = -6.15026e-10
DICPCG:  Solving for p, Initial residual = 0.00344069, Final residual = 8.04375e-07, No Iterations 129
time step continuity errors : sum local = 4.15078e-10, global = 2.00058e-12, cumulative = -6.13025e-10
ExecutionTime = 0.18 s  ClockTime = 0 s

Time = 0.0007

Courant Number mean: 0.120459 max: 0.497315
smoothSolver:  Solving for Ux, Initial residual = 0.000968887, Final residual = 9.37845e-06, No Iterations 1
smoothSolver:  Solving for Uy, Initial residual = 0.000872679, Final residual = 2.41969e-07, No Iterations 2
DICPCG:  Solving for p, Initial residual = 0.0310951, Final residual = 8.54445e-07, No Iterations 133
time step continuity errors : sum local = 4.42592e-10, global = -9.82325e-13, cumulative = -6.14008e-10
DICPCG:  Solving for p, Initial residual = 0.00291066, Final residual = 9.09457e-07, No Iterations 126
time step continuity errors : sum local = 4.75362e-10, global = 2.96405e-13, cumulative = -6.13711e-10
ExecutionTime = 0.2 s  ClockTime = 0 s

Time = 0.0008

Courant Number mean: 0.120463 max: 0.499435
smoothSolver:  Solving for Ux, Initial residual = 0.000959509, Final residual = 9.04967e-06, No Iterations 1
smoothSolver:  Solving for Uy, Initial residual = 0.000886698, Final residual = 2.3772e-07, No Iterations 2
DICPCG:  Solving for p, Initial residual = 0.0284455, Final residual = 9.00401e-07, No Iterations 133
time step continuity errors : sum local = 4.71791e-10, global = -7.3214e-13, cumulative = -6.14443e-10
DICPCG:  Solving for p, Initial residual = 0.00253465, Final residual = 7.97239e-07, No Iterations 126
time step continuity errors : sum local = 4.20377e-10, global = 1.46066e-13, cumulative = -6.14297e-10
ExecutionTime = 0.22 s  ClockTime = 0 s

Time = 0.0009

Courant Number mean: 0.120468 max: 0.5013
smoothSolver:  Solving for Ux, Initial residual = 0.000961029, Final residual = 8.74939e-06, No Iterations 1
smoothSolver:  Solving for Uy, Initial residual = 0.000889191, Final residual = 2.31635e-07, No Iterations 2
DICPCG:  Solving for p, Initial residual = 0.024106, Final residual = 7.38635e-07, No Iterations 133
time step continuity errors : sum local = 3.89457e-10, global = -1.3176e-12, cumulative = -6.15615e-10
DICPCG:  Solving for p, Initial residual = 0.00198645, Final residual = 9.55052e-07, No Iterations 126
time step continuity errors : sum local = 5.04703e-10, global = -2.52148e-13, cumulative = -6.15867e-10
ExecutionTime = 0.24 s  ClockTime = 0 s

Time = 0.001

Courant Number mean: 0.120476 max: 0.502654
smoothSolver:  Solving for Ux, Initial residual = 0.000968731, Final residual = 8.55693e-06, No Iterations 1
smoothSolver:  Solving for Uy, Initial residual = 0.000907085, Final residual = 2.21961e-07, No Iterations 2
DICPCG:  Solving for p, Initial residual = 0.0219553, Final residual = 9.7385e-07, No Iterations 131
time step continuity errors : sum local = 5.12558e-10, global = 3.31747e-12, cumulative = -6.1255e-10
DICPCG:  Solving for p, Initial residual = 0.00162149, Final residual = 8.1085e-07, No Iterations 126
time step continuity errors : sum local = 4.25316e-10, global = 6.46766e-13, cumulative = -6.11903e-10
ExecutionTime = 0.26 s  ClockTime = 0 s

Time = 0.0011

Courant Number mean: 0.120487 max: 0.503358
smoothSolver:  Solving for Ux, Initial residual = 0.000972545, Final residual = 8.31009e-06, No Iterations 1
smoothSolver:  Solving for Uy, Initial residual = 0.000922927, Final residual = 2.05569e-07, No Iterations 2
DICPCG:  Solving for p, Initial residual = 0.0218023, Final residual = 9.24243e-07, No Iterations 131
time step continuity errors : sum local = 4.81974e-10, global = -1.48785e-12, cumulative = -6.13391e-10
DICPCG:  Solving for p, Initial residual = 0.00152338, Final residual = 9.90591e-07, No Iterations 123
time step continuity errors : sum local = 5.13575e-10, global = 1.05461e-13, cumulative = -6.13285e-10
ExecutionTime = 0.28 s  ClockTime = 0 s

Time = 0.0012

Courant Number mean: 0.120498 max: 0.503227
smoothSolver:  Solving for Ux, Initial residual = 0.000974609, Final residual = 8.15371e-06, No Iterations 1
smoothSolver:  Solving for Uy, Initial residual = 0.000939816, Final residual = 9.78451e-06, No Iterations 1
DICPCG:  Solving for p, Initial residual = 0.0213057, Final residual = 8.58513e-07, No Iterations 131
time step continuity errors : sum local = 4.42535e-10, global = 3.22793e-13, cumulative = -6.12963e-10
DICPCG:  Solving for p, Initial residual = 0.00140428, Final residual = 8.49231e-07, No Iterations 127
time step continuity errors : sum local = 4.34996e-10, global = 1.92592e-12, cumulative = -6.11037e-10
ExecutionTime = 0.31 s  ClockTime = 0 s

Time = 0.0013

Courant Number mean: 0.120511 max: 0.502178
smoothSolver:  Solving for Ux, Initial residual = 0.000973831, Final residual = 7.89695e-06, No Iterations 1
smoothSolver:  Solving for Uy, Initial residual = 0.000951778, Final residual = 9.38966e-06, No Iterations 1
DICPCG:  Solving for p, Initial residual = 0.0185355, Final residual = 7.06934e-07, No Iterations 132
time step continuity errors : sum local = 3.61221e-10, global = -2.38829e-12, cumulative = -6.13425e-10
DICPCG:  Solving for p, Initial residual = 0.00132903, Final residual = 9.82983e-07, No Iterations 126
time step continuity errors : sum local = 5.00139e-10, global = 2.41005e-12, cumulative = -6.11015e-10
ExecutionTime = 0.32 s  ClockTime = 0 s

Time = 0.0014

Courant Number mean: 0.120526 max: 0.500277
smoothSolver:  Solving for Ux, Initial residual = 0.000970051, Final residual = 7.72943e-06, No Iterations 1
smoothSolver:  Solving for Uy, Initial residual = 0.000959243, Final residual = 9.33336e-06, No Iterations 1
DICPCG:  Solving for p, Initial residual = 0.0188845, Final residual = 9.01246e-07, No Iterations 131
time step continuity errors : sum local = 4.56994e-10, global = -1.13875e-12, cumulative = -6.12154e-10
DICPCG:  Solving for p, Initial residual = 0.00141518, Final residual = 8.63131e-07, No Iterations 127
time step continuity errors : sum local = 4.35404e-10, global = 8.81688e-13, cumulative = -6.11272e-10
ExecutionTime = 0.33 s  ClockTime = 0 s

Time = 0.0015

Courant Number mean: 0.120543 max: 0.497559
smoothSolver:  Solving for Ux, Initial residual = 0.00096479, Final residual = 7.68457e-06, No Iterations 1
smoothSolver:  Solving for Uy, Initial residual = 0.000966346, Final residual = 9.42279e-06, No Iterations 1
DICPCG:  Solving for p, Initial residual = 0.0185638, Final residual = 7.35442e-07, No Iterations 131
time step continuity errors : sum local = 3.70014e-10, global = -1.01938e-13, cumulative = -6.11374e-10
DICPCG:  Solving for p, Initial residual = 0.00143021, Final residual = 9.93364e-07, No Iterations 126
time step continuity errors : sum local = 4.97374e-10, global = 2.04161e-12, cumulative = -6.09332e-10
ExecutionTime = 0.36 s  ClockTime = 1 s

Time = 0.0016

Courant Number mean: 0.120563 max: 0.494163
smoothSolver:  Solving for Ux, Initial residual = 0.000960372, Final residual = 7.64701e-06, No Iterations 1
smoothSolver:  Solving for Uy, Initial residual = 0.000967248, Final residual = 9.36885e-06, No Iterations 1
DICPCG:  Solving for p, Initial residual = 0.0180685, Final residual = 7.40667e-07, No Iterations 132
time step continuity errors : sum local = 3.69865e-10, global = -2.45826e-13, cumulative = -6.09578e-10
DICPCG:  Solving for p, Initial residual = 0.00148867, Final residual = 8.77253e-07, No Iterations 126
time step continuity errors : sum local = 4.35896e-10, global = 1.92153e-12, cumulative = -6.07657e-10
ExecutionTime = 0.38 s  ClockTime = 1 s

Time = 0.0017

Courant Number mean: 0.120585 max: 0.490268
smoothSolver:  Solving for Ux, Initial residual = 0.000966357, Final residual = 7.54963e-06, No Iterations 1
smoothSolver:  Solving for Uy, Initial residual = 0.000964426, Final residual = 9.10277e-06, No Iterations 1
DICPCG:  Solving for p, Initial residual = 0.0179519, Final residual = 6.75201e-07, No Iterations 132
time step continuity errors : sum local = 3.35117e-10, global = -1.25221e-12, cumulative = -6.08909e-10
DICPCG:  Solving for p, Initial residual = 0.00146435, Final residual = 9.65914e-07, No Iterations 125
time step continuity errors : sum local = 4.77825e-10, global = 3.3735e-13, cumulative = -6.08571e-10
ExecutionTime = 0.4 s  ClockTime = 1 s

Time = 0.0018

Courant Number mean: 0.120607 max: 0.48606
smoothSolver:  Solving for Ux, Initial residual = 0.000973799, Final residual = 7.58291e-06, No Iterations 1
smoothSolver:  Solving for Uy, Initial residual = 0.000967017, Final residual = 8.80459e-06, No Iterations 1
DICPCG:  Solving for p, Initial residual = 0.0171216, Final residual = 6.34653e-07, No Iterations 132
time step continuity errors : sum local = 3.14015e-10, global = 2.77824e-13, cumulative = -6.08294e-10
DICPCG:  Solving for p, Initial residual = 0.00141195, Final residual = 8.04659e-07, No Iterations 125
time step continuity errors : sum local = 3.97522e-10, global = -8.96325e-13, cumulative = -6.0919e-10
ExecutionTime = 0.42 s  ClockTime = 1 s

Time = 0.0019

Courant Number mean: 0.12063 max: 0.481713
smoothSolver:  Solving for Ux, Initial residual = 0.000978677, Final residual = 7.64233e-06, No Iterations 1
smoothSolver:  Solving for Uy, Initial residual = 0.000973942, Final residual = 8.60792e-06, No Iterations 1
DICPCG:  Solving for p, Initial residual = 0.0166667, Final residual = 9.3131e-07, No Iterations 131
time step continuity errors : sum local = 4.60493e-10, global = 7.0168e-13, cumulative = -6.08488e-10
DICPCG:  Solving for p, Initial residual = 0.0013725, Final residual = 8.1122e-07, No Iterations 124
time step continuity errors : sum local = 4.00904e-10, global = -9.97963e-13, cumulative = -6.09486e-10
ExecutionTime = 0.44 s  ClockTime = 1 s

Time = 0.002

Courant Number mean: 0.120653 max: 0.477391
smoothSolver:  Solving for Ux, Initial residual = 0.000980444, Final residual = 7.60541e-06, No Iterations 1
smoothSolver:  Solving for Uy, Initial residual = 0.00097231, Final residual = 8.6478e-06, No Iterations 1
DICPCG:  Solving for p, Initial residual = 0.0167188, Final residual = 5.94169e-07, No Iterations 132
time step continuity errors : sum local = 2.9404e-10, global = 7.20799e-13, cumulative = -6.08765e-10
DICPCG:  Solving for p, Initial residual = 0.00133838, Final residual = 9.79514e-07, No Iterations 122
time step continuity errors : sum local = 4.84914e-10, global = 2.10461e-12, cumulative = -6.06661e-10
ExecutionTime = 0.46 s  ClockTime = 1 s

Time = 0.0021

Courant Number mean: 0.120676 max: 0.47324
smoothSolver:  Solving for Ux, Initial residual = 0.000979698, Final residual = 7.53704e-06, No Iterations 1
smoothSolver:  Solving for Uy, Initial residual = 0.000967908, Final residual = 8.70344e-06, No Iterations 1
DICPCG:  Solving for p, Initial residual = 0.0169303, Final residual = 9.96151e-07, No Iterations 131
time step continuity errors : sum local = 4.94434e-10, global = -4.47098e-13, cumulative = -6.07108e-10
DICPCG:  Solving for p, Initial residual = 0.00126878, Final residual = 9.32298e-07, No Iterations 123
time step continuity errors : sum local = 4.6368e-10, global = 1.15122e-12, cumulative = -6.05957e-10
ExecutionTime = 0.48 s  ClockTime = 1 s

Time = 0.0022

Courant Number mean: 0.120699 max: 0.469362
smoothSolver:  Solving for Ux, Initial residual = 0.000983492, Final residual = 7.49361e-06, No Iterations 1
smoothSolver:  Solving for Uy, Initial residual = 0.00096663, Final residual = 8.62715e-06, No Iterations 1
DICPCG:  Solving for p, Initial residual = 0.0177246, Final residual = 6.95936e-07, No Iterations 132
time step continuity errors : sum local = 3.47014e-10, global = -1.61893e-13, cumulative = -6.06119e-10
DICPCG:  Solving for p, Initial residual = 0.00133924, Final residual = 9.50987e-07, No Iterations 123
time step continuity errors : sum local = 4.75113e-10, global = -2.94093e-12, cumulative = -6.09059e-10
ExecutionTime = 0.49 s  ClockTime = 1 s

Time = 0.0023

Courant Number mean: 0.120724 max: 0.465879
smoothSolver:  Solving for Ux, Initial residual = 0.000988151, Final residual = 7.47276e-06, No Iterations 1
smoothSolver:  Solving for Uy, Initial residual = 0.000967495, Final residual = 8.46877e-06, No Iterations 1
DICPCG:  Solving for p, Initial residual = 0.0178537, Final residual = 9.39696e-07, No Iterations 131
time step continuity errors : sum local = 4.70859e-10, global = -1.86464e-12, cumulative = -6.10924e-10
DICPCG:  Solving for p, Initial residual = 0.00125084, Final residual = 9.27375e-07, No Iterations 124
time step continuity errors : sum local = 4.66097e-10, global = -2.8259e-12, cumulative = -6.1375e-10
ExecutionTime = 0.51 s  ClockTime = 1 s

Time = 0.0024

Courant Number mean: 0.12075 max: 0.462772
smoothSolver:  Solving for Ux, Initial residual = 0.000986036, Final residual = 7.401e-06, No Iterations 1
smoothSolver:  Solving for Uy, Initial residual = 0.000982064, Final residual = 8.35186e-06, No Iterations 1
DICPCG:  Solving for p, Initial residual = 0.0173953, Final residual = 8.41374e-07, No Iterations 132
time step continuity errors : sum local = 4.23898e-10, global = -9.13844e-13, cumulative = -6.14664e-10
DICPCG:  Solving for p, Initial residual = 0.00124012, Final residual = 9.51462e-07, No Iterations 124
time step continuity errors : sum local = 4.80805e-10, global = -3.31971e-12, cumulative = -6.17984e-10
ExecutionTime = 0.53 s  ClockTime = 1 s

Time = 0.0025

Courant Number mean: 0.120776 max: 0.460048
smoothSolver:  Solving for Ux, Initial residual = 0.000985709, Final residual = 7.27943e-06, No Iterations 1
smoothSolver:  Solving for Uy, Initial residual = 0.00100252, Final residual = 8.10509e-06, No Iterations 1
DICPCG:  Solving for p, Initial residual = 0.0169622, Final residual = 8.31999e-07, No Iterations 132
time step continuity errors : sum local = 4.21083e-10, global = -1.35993e-12, cumulative = -6.19343e-10
DICPCG:  Solving for p, Initial residual = 0.00121534, Final residual = 7.78217e-07, No Iterations 124
time step continuity errors : sum local = 3.94693e-10, global = -2.79232e-12, cumulative = -6.22136e-10
ExecutionTime = 0.55 s  ClockTime = 1 s

Time = 0.0026

Courant Number mean: 0.120802 max: 0.457708
smoothSolver:  Solving for Ux, Initial residual = 0.000983857, Final residual = 7.20749e-06, No Iterations 1
smoothSolver:  Solving for Uy, Initial residual = 0.00101353, Final residual = 8.03744e-06, No Iterations 1
DICPCG:  Solving for p, Initial residual = 0.0163504, Final residual = 8.68526e-07, No Iterations 132
time step continuity errors : sum local = 4.41417e-10, global = -1.49159e-12, cumulative = -6.23627e-10
DICPCG:  Solving for p, Initial residual = 0.00116748, Final residual = 8.58944e-07, No Iterations 124
time step continuity errors : sum local = 4.37685e-10, global = -3.99318e-12, cumulative = -6.27621e-10
ExecutionTime = 0.57 s  ClockTime = 1 s

Time = 0.0027

Courant Number mean: 0.120827 max: 0.45571
smoothSolver:  Solving for Ux, Initial residual = 0.000985717, Final residual = 7.23259e-06, No Iterations 1
smoothSolver:  Solving for Uy, Initial residual = 0.00101763, Final residual = 7.93479e-06, No Iterations 1
DICPCG:  Solving for p, Initial residual = 0.0159876, Final residual = 9.05517e-07, No Iterations 132
time step continuity errors : sum local = 4.62514e-10, global = -1.95806e-12, cumulative = -6.29579e-10
DICPCG:  Solving for p, Initial residual = 0.00114296, Final residual = 8.91398e-07, No Iterations 124
time step continuity errors : sum local = 4.56564e-10, global = -4.70789e-12, cumulative = -6.34287e-10
ExecutionTime = 0.59 s  ClockTime = 1 s

Time = 0.0028

Courant Number mean: 0.120851 max: 0.454006
smoothSolver:  Solving for Ux, Initial residual = 0.000989641, Final residual = 7.18266e-06, No Iterations 1
smoothSolver:  Solving for Uy, Initial residual = 0.00101634, Final residual = 7.73532e-06, No Iterations 1
DICPCG:  Solving for p, Initial residual = 0.0160496, Final residual = 9.46028e-07, No Iterations 132
time step continuity errors : sum local = 4.85924e-10, global = -2.08686e-12, cumulative = -6.36373e-10
DICPCG:  Solving for p, Initial residual = 0.00113249, Final residual = 8.75305e-07, No Iterations 124
time step continuity errors : sum local = 4.51108e-10, global = -4.35161e-12, cumulative = -6.40725e-10
ExecutionTime = 0.61 s  ClockTime = 1 s

Time = 0.0029

Courant Number mean: 0.120876 max: 0.452518
smoothSolver:  Solving for Ux, Initial residual = 0.000990493, Final residual = 7.1381e-06, No Iterations 1
smoothSolver:  Solving for Uy, Initial residual = 0.00101177, Final residual = 7.49134e-06, No Iterations 1
DICPCG:  Solving for p, Initial residual = 0.0166368, Final residual = 9.99421e-07, No Iterations 132
time step continuity errors : sum local = 5.1679e-10, global = -3.00224e-12, cumulative = -6.43727e-10
DICPCG:  Solving for p, Initial residual = 0.00110813, Final residual = 8.15771e-07, No Iterations 125
time step continuity errors : sum local = 4.23545e-10, global = -2.68087e-12, cumulative = -6.46408e-10
ExecutionTime = 0.63 s  ClockTime = 1 s

Time = 0.003

Courant Number mean: 0.120901 max: 0.451141
smoothSolver:  Solving for Ux, Initial residual = 0.00098919, Final residual = 7.1238e-06, No Iterations 1
smoothSolver:  Solving for Uy, Initial residual = 0.0010088, Final residual = 7.23131e-06, No Iterations 1
DICPCG:  Solving for p, Initial residual = 0.0164571, Final residual = 9.59807e-07, No Iterations 132
time step continuity errors : sum local = 4.99309e-10, global = 2.52539e-12, cumulative = -6.43883e-10
DICPCG:  Solving for p, Initial residual = 0.00102002, Final residual = 7.65221e-07, No Iterations 125
time step continuity errors : sum local = 3.98704e-10, global = -1.90875e-12, cumulative = -6.45791e-10
ExecutionTime = 0.64 s  ClockTime = 1 s

Time = 0.0031

Courant Number mean: 0.120928 max: 0.449782
smoothSolver:  Solving for Ux, Initial residual = 0.000981106, Final residual = 7.06578e-06, No Iterations 1
smoothSolver:  Solving for Uy, Initial residual = 0.000996363, Final residual = 7.12715e-06, No Iterations 1
DICPCG:  Solving for p, Initial residual = 0.0171591, Final residual = 9.92494e-07, No Iterations 132
time step continuity errors : sum local = 5.18469e-10, global = 3.58149e-12, cumulative = -6.4221e-10
DICPCG:  Solving for p, Initial residual = 0.000998084, Final residual = 8.05675e-07, No Iterations 122
time step continuity errors : sum local = 4.20075e-10, global = 1.23097e-12, cumulative = -6.40979e-10
ExecutionTime = 0.66 s  ClockTime = 1 s

Time = 0.0032

Courant Number mean: 0.120955 max: 0.44843
smoothSolver:  Solving for Ux, Initial residual = 0.000972613, Final residual = 6.90194e-06, No Iterations 1
smoothSolver:  Solving for Uy, Initial residual = 0.000994479, Final residual = 7.02775e-06, No Iterations 1
DICPCG:  Solving for p, Initial residual = 0.0173966, Final residual = 8.28019e-07, No Iterations 133
time step continuity errors : sum local = 4.33073e-10, global = 1.07096e-12, cumulative = -6.39908e-10
DICPCG:  Solving for p, Initial residual = 0.00100642, Final residual = 9.7803e-07, No Iterations 123
time step continuity errors : sum local = 5.12203e-10, global = -1.90918e-12, cumulative = -6.41817e-10
ExecutionTime = 0.68 s  ClockTime = 1 s

Time = 0.0033

Courant Number mean: 0.12098 max: 0.446961
smoothSolver:  Solving for Ux, Initial residual = 0.000961611, Final residual = 6.84891e-06, No Iterations 1
smoothSolver:  Solving for Uy, Initial residual = 0.000991494, Final residual = 6.92328e-06, No Iterations 1
DICPCG:  Solving for p, Initial residual = 0.0155124, Final residual = 7.20194e-07, No Iterations 128
time step continuity errors : sum local = 3.77979e-10, global = -3.21455e-13, cumulative = -6.42139e-10
DICPCG:  Solving for p, Initial residual = 0.000858199, Final residual = 8.012e-07, No Iterations 122
time step continuity errors : sum local = 4.19768e-10, global = 1.3319e-12, cumulative = -6.40807e-10
ExecutionTime = 0.7 s  ClockTime = 1 s

Time = 0.0034

Courant Number mean: 0.121005 max: 0.445426
smoothSolver:  Solving for Ux, Initial residual = 0.000958163, Final residual = 6.77119e-06, No Iterations 1
smoothSolver:  Solving for Uy, Initial residual = 0.000988031, Final residual = 6.81509e-06, No Iterations 1
DICPCG:  Solving for p, Initial residual = 0.0148784, Final residual = 9.78488e-07, No Iterations 131
time step continuity errors : sum local = 5.12038e-10, global = -1.94119e-12, cumulative = -6.42748e-10
DICPCG:  Solving for p, Initial residual = 0.000787759, Final residual = 9.15178e-07, No Iterations 119
time step continuity errors : sum local = 4.77247e-10, global = 3.27264e-12, cumulative = -6.39475e-10
ExecutionTime = 0.72 s  ClockTime = 1 s

Time = 0.0035

Courant Number mean: 0.121033 max: 0.443792
smoothSolver:  Solving for Ux, Initial residual = 0.000958404, Final residual = 6.68116e-06, No Iterations 1
smoothSolver:  Solving for Uy, Initial residual = 0.000980819, Final residual = 6.58576e-06, No Iterations 1
DICPCG:  Solving for p, Initial residual = 0.0141131, Final residual = 7.69265e-07, No Iterations 132
time step continuity errors : sum local = 4.00426e-10, global = -2.72466e-12, cumulative = -6.422e-10
DICPCG:  Solving for p, Initial residual = 0.000738684, Final residual = 9.91384e-07, No Iterations 124
time step continuity errors : sum local = 5.16044e-10, global = 5.97504e-13, cumulative = -6.41602e-10
ExecutionTime = 0.74 s  ClockTime = 1 s

Time = 0.0036

Courant Number mean: 0.121064 max: 0.441953
smoothSolver:  Solving for Ux, Initial residual = 0.0009587, Final residual = 6.619e-06, No Iterations 1
smoothSolver:  Solving for Uy, Initial residual = 0.00097968, Final residual = 6.51586e-06, No Iterations 1
DICPCG:  Solving for p, Initial residual = 0.0173844, Final residual = 7.89025e-07, No Iterations 132
time step continuity errors : sum local = 4.09108e-10, global = -2.20778e-12, cumulative = -6.4381e-10
DICPCG:  Solving for p, Initial residual = 0.000789289, Final residual = 7.86933e-07, No Iterations 124
time step continuity errors : sum local = 4.06461e-10, global = -3.34458e-12, cumulative = -6.47155e-10
ExecutionTime = 0.75 s  ClockTime = 1 s

Time = 0.0037

Courant Number mean: 0.121093 max: 0.439986
smoothSolver:  Solving for Ux, Initial residual = 0.000962044, Final residual = 6.53709e-06, No Iterations 1
smoothSolver:  Solving for Uy, Initial residual = 0.000978733, Final residual = 6.55552e-06, No Iterations 1
DICPCG:  Solving for p, Initial residual = 0.0124335, Final residual = 9.28885e-07, No Iterations 132
time step continuity errors : sum local = 4.80445e-10, global = -2.21197e-12, cumulative = -6.49367e-10
DICPCG:  Solving for p, Initial residual = 0.000733216, Final residual = 7.8432e-07, No Iterations 123
time step continuity errors : sum local = 4.06557e-10, global = -1.95023e-13, cumulative = -6.49562e-10
ExecutionTime = 0.77 s  ClockTime = 1 s

Time = 0.0038

Courant Number mean: 0.121122 max: 0.437838
smoothSolver:  Solving for Ux, Initial residual = 0.000967274, Final residual = 6.50017e-06, No Iterations 1
smoothSolver:  Solving for Uy, Initial residual = 0.000975311, Final residual = 6.55814e-06, No Iterations 1
DICPCG:  Solving for p, Initial residual = 0.012184, Final residual = 8.93132e-07, No Iterations 132
time step continuity errors : sum local = 4.63403e-10, global = -2.6214e-12, cumulative = -6.52183e-10
DICPCG:  Solving for p, Initial residual = 0.000745458, Final residual = 8.32089e-07, No Iterations 124
time step continuity errors : sum local = 4.32143e-10, global = -4.36665e-12, cumulative = -6.5655e-10
ExecutionTime = 0.79 s  ClockTime = 1 s

Time = 0.0039

Courant Number mean: 0.12115 max: 0.435586
smoothSolver:  Solving for Ux, Initial residual = 0.000970035, Final residual = 6.47183e-06, No Iterations 1
smoothSolver:  Solving for Uy, Initial residual = 0.000975346, Final residual = 6.5762e-06, No Iterations 1
DICPCG:  Solving for p, Initial residual = 0.0131703, Final residual = 8.81328e-07, No Iterations 132
time step continuity errors : sum local = 4.57784e-10, global = -2.98336e-12, cumulative = -6.59533e-10
DICPCG:  Solving for p, Initial residual = 0.000825496, Final residual = 8.53645e-07, No Iterations 124
time step continuity errors : sum local = 4.43515e-10, global = -4.52771e-12, cumulative = -6.64061e-10
ExecutionTime = 0.81 s  ClockTime = 1 s

Time = 0.004

Courant Number mean: 0.121178 max: 0.433291
smoothSolver:  Solving for Ux, Initial residual = 0.000973098, Final residual = 6.49939e-06, No Iterations 1
smoothSolver:  Solving for Uy, Initial residual = 0.000976351, Final residual = 6.52395e-06, No Iterations 1
DICPCG:  Solving for p, Initial residual = 0.0121651, Final residual = 8.77544e-07, No Iterations 132
time step continuity errors : sum local = 4.56719e-10, global = -2.32648e-12, cumulative = -6.66387e-10
DICPCG:  Solving for p, Initial residual = 0.000754358, Final residual = 8.57275e-07, No Iterations 124
time step continuity errors : sum local = 4.46922e-10, global = -5.20769e-12, cumulative = -6.71595e-10
ExecutionTime = 0.83 s  ClockTime = 1 s

Time = 0.0041

Courant Number mean: 0.121207 max: 0.430995
smoothSolver:  Solving for Ux, Initial residual = 0.000973319, Final residual = 6.52911e-06, No Iterations 1
smoothSolver:  Solving for Uy, Initial residual = 0.000973042, Final residual = 6.42163e-06, No Iterations 1
DICPCG:  Solving for p, Initial residual = 0.0125388, Final residual = 8.99145e-07, No Iterations 132
time step continuity errors : sum local = 4.69451e-10, global = -2.74571e-12, cumulative = -6.74341e-10
DICPCG:  Solving for p, Initial residual = 0.000758208, Final residual = 8.89783e-07, No Iterations 124
time step continuity errors : sum local = 4.65408e-10, global = -5.51297e-12, cumulative = -6.79854e-10
ExecutionTime = 0.85 s  ClockTime = 1 s

Time = 0.0042

Courant Number mean: 0.121237 max: 0.428746
smoothSolver:  Solving for Ux, Initial residual = 0.000975803, Final residual = 6.54895e-06, No Iterations 1
smoothSolver:  Solving for Uy, Initial residual = 0.000973658, Final residual = 6.34405e-06, No Iterations 1
DICPCG:  Solving for p, Initial residual = 0.0129242, Final residual = 7.49637e-07, No Iterations 132
time step continuity errors : sum local = 3.92562e-10, global = -1.8638e-12, cumulative = -6.81718e-10
DICPCG:  Solving for p, Initial residual = 0.000793156, Final residual = 7.3732e-07, No Iterations 121
time step continuity errors : sum local = 3.86595e-10, global = 1.51051e-12, cumulative = -6.80207e-10
ExecutionTime = 0.87 s  ClockTime = 1 s

Time = 0.0043

Courant Number mean: 0.121267 max: 0.426587
smoothSolver:  Solving for Ux, Initial residual = 0.000971413, Final residual = 6.5485e-06, No Iterations 1
smoothSolver:  Solving for Uy, Initial residual = 0.000971747, Final residual = 6.32248e-06, No Iterations 1
DICPCG:  Solving for p, Initial residual = 0.0119723, Final residual = 8.68467e-07, No Iterations 132
time step continuity errors : sum local = 4.55813e-10, global = -2.18041e-12, cumulative = -6.82388e-10
DICPCG:  Solving for p, Initial residual = 0.000780784, Final residual = 7.2257e-07, No Iterations 124
time step continuity errors : sum local = 3.79773e-10, global = -4.18194e-12, cumulative = -6.86569e-10
ExecutionTime = 0.89 s  ClockTime = 1 s

Time = 0.0044

Courant Number mean: 0.121296 max: 0.424554
smoothSolver:  Solving for Ux, Initial residual = 0.000970953, Final residual = 6.56389e-06, No Iterations 1
smoothSolver:  Solving for Uy, Initial residual = 0.000972565, Final residual = 6.30905e-06, No Iterations 1
DICPCG:  Solving for p, Initial residual = 0.012509, Final residual = 8.58603e-07, No Iterations 132
time step continuity errors : sum local = 4.51669e-10, global = -1.64741e-12, cumulative = -6.88217e-10
DICPCG:  Solving for p, Initial residual = 0.000833931, Final residual = 9.45934e-07, No Iterations 123
time step continuity errors : sum local = 4.98234e-10, global = -4.50252e-12, cumulative = -6.92719e-10
ExecutionTime = 0.9 s  ClockTime = 2 s

Time = 0.0045

Courant Number mean: 0.121324 max: 0.422669
smoothSolver:  Solving for Ux, Initial residual = 0.000971208, Final residual = 6.54503e-06, No Iterations 1
smoothSolver:  Solving for Uy, Initial residual = 0.000972118, Final residual = 6.33247e-06, No Iterations 1
DICPCG:  Solving for p, Initial residual = 0.0127443, Final residual = 8.30871e-07, No Iterations 132
time step continuity errors : sum local = 4.37574e-10, global = -1.96785e-12, cumulative = -6.94687e-10
DICPCG:  Solving for p, Initial residual = 0.000868086, Final residual = 7.45012e-07, No Iterations 124
time step continuity errors : sum local = 3.92422e-10, global = -4.36449e-12, cumulative = -6.99052e-10
ExecutionTime = 0.92 s  ClockTime = 2 s

Time = 0.0046

Courant Number mean: 0.121353 max: 0.420942
smoothSolver:  Solving for Ux, Initial residual = 0.000970315, Final residual = 6.49167e-06, No Iterations 1
smoothSolver:  Solving for Uy, Initial residual = 0.000976402, Final residual = 6.33252e-06, No Iterations 1
DICPCG:  Solving for p, Initial residual = 0.0133809, Final residual = 9.09438e-07, No Iterations 132
time step continuity errors : sum local = 4.78684e-10, global = -2.82369e-12, cumulative = -7.01875e-10
DICPCG:  Solving for p, Initial residual = 0.000932103, Final residual = 9.6293e-07, No Iterations 124
time step continuity errors : sum local = 5.06715e-10, global = -6.18211e-12, cumulative = -7.08058e-10
ExecutionTime = 0.94 s  ClockTime = 2 s

Time = 0.0047

Courant Number mean: 0.121382 max: 0.419378
smoothSolver:  Solving for Ux, Initial residual = 0.000970083, Final residual = 6.50794e-06, No Iterations 1
smoothSolver:  Solving for Uy, Initial residual = 0.000977667, Final residual = 6.28908e-06, No Iterations 1
DICPCG:  Solving for p, Initial residual = 0.0136275, Final residual = 7.09033e-07, No Iterations 133
time step continuity errors : sum local = 3.72939e-10, global = -1.91902e-12, cumulative = -7.09977e-10
DICPCG:  Solving for p, Initial residual = 0.000967967, Final residual = 9.97649e-07, No Iterations 124
time step continuity errors : sum local = 5.24756e-10, global = -5.99881e-12, cumulative = -7.15975e-10
ExecutionTime = 0.96 s  ClockTime = 2 s

Time = 0.0048

Courant Number mean: 0.12141 max: 0.417963
smoothSolver:  Solving for Ux, Initial residual = 0.000970513, Final residual = 6.53847e-06, No Iterations 1
smoothSolver:  Solving for Uy, Initial residual = 0.000979009, Final residual = 6.23014e-06, No Iterations 1
DICPCG:  Solving for p, Initial residual = 0.0135083, Final residual = 8.86542e-07, No Iterations 132
time step continuity errors : sum local = 4.66712e-10, global = -1.52692e-12, cumulative = -7.17502e-10
DICPCG:  Solving for p, Initial residual = 0.000928355, Final residual = 8.94897e-07, No Iterations 124
time step continuity errors : sum local = 4.7116e-10, global = -6.14282e-12, cumulative = -7.23645e-10
ExecutionTime = 0.99 s  ClockTime = 2 s

Time = 0.0049

Courant Number mean: 0.12144 max: 0.416685
smoothSolver:  Solving for Ux, Initial residual = 0.000972146, Final residual = 6.55387e-06, No Iterations 1
smoothSolver:  Solving for Uy, Initial residual = 0.000978495, Final residual = 6.16396e-06, No Iterations 1
DICPCG:  Solving for p, Initial residual = 0.0136239, Final residual = 8.23678e-07, No Iterations 132
time step continuity errors : sum local = 4.34134e-10, global = -1.2558e-12, cumulative = -7.24901e-10
DICPCG:  Solving for p, Initial residual = 0.000942729, Final residual = 8.5705e-07, No Iterations 124
time step continuity errors : sum local = 4.51688e-10, global = -5.81487e-12, cumulative = -7.30716e-10
ExecutionTime = 1.01 s  ClockTime = 2 s

Time = 0.005

Courant Number mean: 0.121471 max: 0.415513
smoothSolver:  Solving for Ux, Initial residual = 0.000973098, Final residual = 6.54836e-06, No Iterations 1
smoothSolver:  Solving for Uy, Initial residual = 0.000973644, Final residual = 6.14246e-06, No Iterations 1
DICPCG:  Solving for p, Initial residual = 0.0149969, Final residual = 9.95645e-07, No Iterations 132
time step continuity errors : sum local = 5.23628e-10, global = -1.84339e-12, cumulative = -7.32559e-10
DICPCG:  Solving for p, Initial residual = 0.00106417, Final residual = 7.67771e-07, No Iterations 125
time step continuity errors : sum local = 4.03979e-10, global = -5.07186e-13, cumulative = -7.33066e-10
ExecutionTime = 1.02 s  ClockTime = 2 s

Time = 0.0051

Courant Number mean: 0.121503 max: 0.414399
smoothSolver:  Solving for Ux, Initial residual = 0.000978585, Final residual = 6.61131e-06, No Iterations 1
smoothSolver:  Solving for Uy, Initial residual = 0.00097734, Final residual = 6.14918e-06, No Iterations 1
DICPCG:  Solving for p, Initial residual = 0.0140625, Final residual = 8.05503e-07, No Iterations 97
time step continuity errors : sum local = 4.23922e-10, global = -4.13579e-11, cumulative = -7.74424e-10
DICPCG:  Solving for p, Initial residual = 0.00105032, Final residual = 9.28791e-07, No Iterations 124
time step continuity errors : sum local = 4.8882e-10, global = -5.62225e-12, cumulative = -7.80046e-10
ExecutionTime = 1.03 s  ClockTime = 2 s

Time = 0.0052

Courant Number mean: 0.121536 max: 0.413318
smoothSolver:  Solving for Ux, Initial residual = 0.000981667, Final residual = 6.63952e-06, No Iterations 1
smoothSolver:  Solving for Uy, Initial residual = 0.000981456, Final residual = 6.10082e-06, No Iterations 1
DICPCG:  Solving for p, Initial residual = 0.0129166, Final residual = 7.96072e-07, No Iterations 132
time step continuity errors : sum local = 4.19018e-10, global = -1.8645e-12, cumulative = -7.81911e-10
DICPCG:  Solving for p, Initial residual = 0.00096235, Final residual = 7.77444e-07, No Iterations 124
time step continuity errors : sum local = 4.08988e-10, global = -4.53939e-12, cumulative = -7.8645e-10
ExecutionTime = 1.05 s  ClockTime = 2 s

Time = 0.0053

Courant Number mean: 0.121571 max: 0.412231
smoothSolver:  Solving for Ux, Initial residual = 0.00098215, Final residual = 6.66896e-06, No Iterations 1
smoothSolver:  Solving for Uy, Initial residual = 0.000984365, Final residual = 6.07097e-06, No Iterations 1
DICPCG:  Solving for p, Initial residual = 0.0129403, Final residual = 7.88782e-07, No Iterations 132
time step continuity errors : sum local = 4.14854e-10, global = -2.67131e-12, cumulative = -7.89122e-10
DICPCG:  Solving for p, Initial residual = 0.000948444, Final residual = 7.61874e-07, No Iterations 124
time step continuity errors : sum local = 4.00307e-10, global = -4.52761e-12, cumulative = -7.93649e-10
ExecutionTime = 1.07 s  ClockTime = 2 s

Time = 0.0054

Courant Number mean: 0.121606 max: 0.411105
smoothSolver:  Solving for Ux, Initial residual = 0.00097981, Final residual = 6.66241e-06, No Iterations 1
smoothSolver:  Solving for Uy, Initial residual = 0.000986722, Final residual = 6.09211e-06, No Iterations 1
DICPCG:  Solving for p, Initial residual = 0.0124678, Final residual = 8.22599e-07, No Iterations 132
time step continuity errors : sum local = 4.32209e-10, global = -2.22546e-12, cumulative = -7.95875e-10
DICPCG:  Solving for p, Initial residual = 0.000895005, Final residual = 7.46641e-07, No Iterations 124
time step continuity errors : sum local = 3.92063e-10, global = -4.4088e-12, cumulative = -8.00284e-10
ExecutionTime = 1.09 s  ClockTime = 2 s

Time = 0.0055

Courant Number mean: 0.121643 max: 0.409929
smoothSolver:  Solving for Ux, Initial residual = 0.000979329, Final residual = 6.62687e-06, No Iterations 1
smoothSolver:  Solving for Uy, Initial residual = 0.000990921, Final residual = 6.20381e-06, No Iterations 1
DICPCG:  Solving for p, Initial residual = 0.0126317, Final residual = 8.61295e-07, No Iterations 132
time step continuity errors : sum local = 4.52252e-10, global = -1.85658e-12, cumulative = -8.0214e-10
DICPCG:  Solving for p, Initial residual = 0.000890812, Final residual = 7.52063e-07, No Iterations 124
time step continuity errors : sum local = 3.94737e-10, global = -4.2859e-12, cumulative = -8.06426e-10
ExecutionTime = 1.11 s  ClockTime = 2 s

Time = 0.0056

Courant Number mean: 0.12168 max: 0.408679
smoothSolver:  Solving for Ux, Initial residual = 0.000979854, Final residual = 6.58416e-06, No Iterations 1
smoothSolver:  Solving for Uy, Initial residual = 0.000998504, Final residual = 6.28437e-06, No Iterations 1
DICPCG:  Solving for p, Initial residual = 0.012907, Final residual = 8.13559e-07, No Iterations 132
time step continuity errors : sum local = 4.27005e-10, global = -2.34806e-12, cumulative = -8.08774e-10
DICPCG:  Solving for p, Initial residual = 0.000874477, Final residual = 7.37039e-07, No Iterations 124
time step continuity errors : sum local = 3.86567e-10, global = -4.53849e-12, cumulative = -8.13313e-10
ExecutionTime = 1.14 s  ClockTime = 2 s

Time = 0.0057

Courant Number mean: 0.121717 max: 0.407339
smoothSolver:  Solving for Ux, Initial residual = 0.00098075, Final residual = 6.55803e-06, No Iterations 1
smoothSolver:  Solving for Uy, Initial residual = 0.0010013, Final residual = 6.32013e-06, No Iterations 1
DICPCG:  Solving for p, Initial residual = 0.0127582, Final residual = 8.04756e-07, No Iterations 132
time step continuity errors : sum local = 4.2206e-10, global = -2.39218e-12, cumulative = -8.15705e-10
DICPCG:  Solving for p, Initial residual = 0.000850465, Final residual = 7.5239e-07, No Iterations 124
time step continuity errors : sum local = 3.94296e-10, global = -4.64117e-12, cumulative = -8.20346e-10
ExecutionTime = 1.16 s  ClockTime = 2 s

Time = 0.0058

Courant Number mean: 0.121754 max: 0.407149
smoothSolver:  Solving for Ux, Initial residual = 0.000980378, Final residual = 6.54052e-06, No Iterations 1
smoothSolver:  Solving for Uy, Initial residual = 0.00100112, Final residual = 6.35351e-06, No Iterations 1
DICPCG:  Solving for p, Initial residual = 0.0131472, Final residual = 8.15058e-07, No Iterations 132
time step continuity errors : sum local = 4.2735e-10, global = -2.26422e-12, cumulative = -8.2261e-10
DICPCG:  Solving for p, Initial residual = 0.000863918, Final residual = 9.75529e-07, No Iterations 123
time step continuity errors : sum local = 5.11294e-10, global = -6.36179e-12, cumulative = -8.28972e-10
ExecutionTime = 1.18 s  ClockTime = 2 s

Time = 0.0059

Courant Number mean: 0.121791 max: 0.409817
smoothSolver:  Solving for Ux, Initial residual = 0.000979429, Final residual = 6.51808e-06, No Iterations 1
smoothSolver:  Solving for Uy, Initial residual = 0.00100251, Final residual = 6.44318e-06, No Iterations 1
DICPCG:  Solving for p, Initial residual = 0.0137546, Final residual = 7.21753e-07, No Iterations 133
time step continuity errors : sum local = 3.78268e-10, global = -1.15097e-12, cumulative = -8.30123e-10
DICPCG:  Solving for p, Initial residual = 0.000966253, Final residual = 9.93049e-07, No Iterations 121
time step continuity errors : sum local = 5.21207e-10, global = -1.67642e-12, cumulative = -8.31799e-10
ExecutionTime = 1.19 s  ClockTime = 2 s

Time = 0.006

Courant Number mean: 0.121829 max: 0.412745
smoothSolver:  Solving for Ux, Initial residual = 0.000979807, Final residual = 6.47622e-06, No Iterations 1
smoothSolver:  Solving for Uy, Initial residual = 0.00100683, Final residual = 6.5613e-06, No Iterations 1
DICPCG:  Solving for p, Initial residual = 0.0142406, Final residual = 8.18776e-07, No Iterations 133
time step continuity errors : sum local = 4.30043e-10, global = -1.33363e-12, cumulative = -8.33133e-10
DICPCG:  Solving for p, Initial residual = 0.00101047, Final residual = 8.45478e-07, No Iterations 122
time step continuity errors : sum local = 4.44895e-10, global = -2.81158e-12, cumulative = -8.35945e-10
ExecutionTime = 1.21 s  ClockTime = 2 s

Time = 0.0061

Courant Number mean: 0.121867 max: 0.415936
smoothSolver:  Solving for Ux, Initial residual = 0.000978752, Final residual = 6.42714e-06, No Iterations 1
smoothSolver:  Solving for Uy, Initial residual = 0.00101142, Final residual = 6.66403e-06, No Iterations 1
DICPCG:  Solving for p, Initial residual = 0.0140291, Final residual = 9.86816e-07, No Iterations 132
time step continuity errors : sum local = 5.19887e-10, global = -3.07727e-12, cumulative = -8.39022e-10
DICPCG:  Solving for p, Initial residual = 0.00100079, Final residual = 7.55383e-07, No Iterations 123
time step continuity errors : sum local = 3.98484e-10, global = -2.74577e-12, cumulative = -8.41768e-10
ExecutionTime = 1.23 s  ClockTime = 2 s

Time = 0.0062

Courant Number mean: 0.121907 max: 0.419178
smoothSolver:  Solving for Ux, Initial residual = 0.000977208, Final residual = 6.43608e-06, No Iterations 1
smoothSolver:  Solving for Uy, Initial residual = 0.00101572, Final residual = 6.71074e-06, No Iterations 1
DICPCG:  Solving for p, Initial residual = 0.0142025, Final residual = 9.72792e-07, No Iterations 132
time step continuity errors : sum local = 5.13873e-10, global = -3.27339e-12, cumulative = -8.45041e-10
DICPCG:  Solving for p, Initial residual = 0.00101425, Final residual = 8.138e-07, No Iterations 123
time step continuity errors : sum local = 4.30504e-10, global = -3.30164e-12, cumulative = -8.48343e-10
ExecutionTime = 1.25 s  ClockTime = 2 s

Time = 0.0063

Courant Number mean: 0.121947 max: 0.422357
smoothSolver:  Solving for Ux, Initial residual = 0.00097873, Final residual = 6.48297e-06, No Iterations 1
smoothSolver:  Solving for Uy, Initial residual = 0.00102234, Final residual = 6.71118e-06, No Iterations 1
DICPCG:  Solving for p, Initial residual = 0.0163699, Final residual = 7.33606e-07, No Iterations 134
time step continuity errors : sum local = 3.88052e-10, global = -4.71321e-13, cumulative = -8.48814e-10
DICPCG:  Solving for p, Initial residual = 0.00120668, Final residual = 6.71295e-07, No Iterations 126
time step continuity errors : sum local = 3.5645e-10, global = -7.14477e-13, cumulative = -8.49528e-10
ExecutionTime = 1.27 s  ClockTime = 2 s

Time = 0.0064

Courant Number mean: 0.121988 max: 0.425936
smoothSolver:  Solving for Ux, Initial residual = 0.000988367, Final residual = 6.62327e-06, No Iterations 1
smoothSolver:  Solving for Uy, Initial residual = 0.00103215, Final residual = 6.7962e-06, No Iterations 1
DICPCG:  Solving for p, Initial residual = 0.015827, Final residual = 7.23645e-07, No Iterations 133
time step continuity errors : sum local = 3.84682e-10, global = -1.39447e-12, cumulative = -8.50923e-10
DICPCG:  Solving for p, Initial residual = 0.00116433, Final residual = 8.54685e-07, No Iterations 124
time step continuity errors : sum local = 4.54807e-10, global = -4.04664e-12, cumulative = -8.54969e-10
ExecutionTime = 1.29 s  ClockTime = 2 s

Time = 0.0065

Courant Number mean: 0.122028 max: 0.429447
smoothSolver:  Solving for Ux, Initial residual = 0.000993794, Final residual = 6.70588e-06, No Iterations 1
smoothSolver:  Solving for Uy, Initial residual = 0.00103895, Final residual = 6.8807e-06, No Iterations 1
DICPCG:  Solving for p, Initial residual = 0.0148164, Final residual = 9.13714e-07, No Iterations 132
time step continuity errors : sum local = 4.87169e-10, global = -2.93838e-12, cumulative = -8.57908e-10
DICPCG:  Solving for p, Initial residual = 0.00112206, Final residual = 9.497e-07, No Iterations 122
time step continuity errors : sum local = 5.06967e-10, global = -5.22367e-12, cumulative = -8.63132e-10
ExecutionTime = 1.31 s  ClockTime = 2 s

Time = 0.0066

Courant Number mean: 0.122068 max: 0.432615
smoothSolver:  Solving for Ux, Initial residual = 0.00100189, Final residual = 6.76989e-06, No Iterations 1
smoothSolver:  Solving for Uy, Initial residual = 0.00104871, Final residual = 6.91398e-06, No Iterations 1
DICPCG:  Solving for p, Initial residual = 0.0147774, Final residual = 8.99156e-07, No Iterations 132
time step continuity errors : sum local = 4.81147e-10, global = -2.57415e-12, cumulative = -8.65706e-10
DICPCG:  Solving for p, Initial residual = 0.00111197, Final residual = 8.21075e-07, No Iterations 123
time step continuity errors : sum local = 4.40296e-10, global = -3.80957e-12, cumulative = -8.69515e-10
ExecutionTime = 1.33 s  ClockTime = 2 s

Time = 0.0067

Courant Number mean: 0.122107 max: 0.435338
smoothSolver:  Solving for Ux, Initial residual = 0.00100905, Final residual = 6.83245e-06, No Iterations 1
smoothSolver:  Solving for Uy, Initial residual = 0.0010583, Final residual = 6.88181e-06, No Iterations 1
DICPCG:  Solving for p, Initial residual = 0.0142979, Final residual = 8.35615e-07, No Iterations 97
time step continuity errors : sum local = 4.49183e-10, global = -1.76266e-11, cumulative = -8.87142e-10
DICPCG:  Solving for p, Initial residual = 0.00108724, Final residual = 8.23253e-07, No Iterations 123
time step continuity errors : sum local = 4.43516e-10, global = -3.34928e-12, cumulative = -8.90491e-10
ExecutionTime = 1.33 s  ClockTime = 2 s

Time = 0.0068

Courant Number mean: 0.122145 max: 0.437538
smoothSolver:  Solving for Ux, Initial residual = 0.00101561, Final residual = 6.88566e-06, No Iterations 1
smoothSolver:  Solving for Uy, Initial residual = 0.00106253, Final residual = 6.81194e-06, No Iterations 1
DICPCG:  Solving for p, Initial residual = 0.0149328, Final residual = 9.23282e-07, No Iterations 132
time step continuity errors : sum local = 4.98559e-10, global = -3.55505e-12, cumulative = -8.94046e-10
DICPCG:  Solving for p, Initial residual = 0.00109809, Final residual = 7.41223e-07, No Iterations 123
time step continuity errors : sum local = 4.0114e-10, global = -3.22981e-12, cumulative = -8.97276e-10
ExecutionTime = 1.35 s  ClockTime = 2 s

Time = 0.0069

Courant Number mean: 0.122183 max: 0.439133
smoothSolver:  Solving for Ux, Initial residual = 0.00102065, Final residual = 6.93052e-06, No Iterations 1
smoothSolver:  Solving for Uy, Initial residual = 0.00106265, Final residual = 6.75915e-06, No Iterations 1
DICPCG:  Solving for p, Initial residual = 0.0144572, Final residual = 9.48178e-07, No Iterations 132
time step continuity errors : sum local = 5.14272e-10, global = -3.63833e-12, cumulative = -9.00914e-10
DICPCG:  Solving for p, Initial residual = 0.0010246, Final residual = 8.18112e-07, No Iterations 123
time step continuity errors : sum local = 4.44721e-10, global = -3.061e-12, cumulative = -9.03975e-10
ExecutionTime = 1.37 s  ClockTime = 2 s

Time = 0.007

Courant Number mean: 0.12222 max: 0.440107
smoothSolver:  Solving for Ux, Initial residual = 0.00102619, Final residual = 6.95456e-06, No Iterations 1
smoothSolver:  Solving for Uy, Initial residual = 0.00107029, Final residual = 6.72449e-06, No Iterations 1
DICPCG:  Solving for p, Initial residual = 0.0146205, Final residual = 9.96506e-07, No Iterations 132
time step continuity errors : sum local = 5.42957e-10, global = -3.13536e-12, cumulative = -9.07111e-10
DICPCG:  Solving for p, Initial residual = 0.00095809, Final residual = 8.93321e-07, No Iterations 123
time step continuity errors : sum local = 4.88087e-10, global = -4.06541e-12, cumulative = -9.11176e-10
ExecutionTime = 1.39 s  ClockTime = 2 s

Time = 0.0071

Courant Number mean: 0.122258 max: 0.44046
smoothSolver:  Solving for Ux, Initial residual = 0.00103244, Final residual = 6.95696e-06, No Iterations 1
smoothSolver:  Solving for Uy, Initial residual = 0.00107853, Final residual = 6.66186e-06, No Iterations 1
DICPCG:  Solving for p, Initial residual = 0.0137415, Final residual = 9.92217e-07, No Iterations 132
time step continuity errors : sum local = 5.43273e-10, global = -2.84398e-12, cumulative = -9.1402e-10
DICPCG:  Solving for p, Initial residual = 0.000867813, Final residual = 8.48854e-07, No Iterations 123
time step continuity errors : sum local = 4.66104e-10, global = -1.17697e-12, cumulative = -9.15197e-10
ExecutionTime = 1.41 s  ClockTime = 2 s

Time = 0.0072

Courant Number mean: 0.122295 max: 0.440197
smoothSolver:  Solving for Ux, Initial residual = 0.00103897, Final residual = 6.95944e-06, No Iterations 1
smoothSolver:  Solving for Uy, Initial residual = 0.00108507, Final residual = 6.54704e-06, No Iterations 1
DICPCG:  Solving for p, Initial residual = 0.0134109, Final residual = 9.46195e-07, No Iterations 132
time step continuity errors : sum local = 5.20673e-10, global = -3.29165e-12, cumulative = -9.18489e-10
DICPCG:  Solving for p, Initial residual = 0.000788116, Final residual = 7.35506e-07, No Iterations 123
time step continuity errors : sum local = 4.05825e-10, global = -3.185e-12, cumulative = -9.21674e-10
ExecutionTime = 1.43 s  ClockTime = 2 s

Time = 0.0073

Courant Number mean: 0.122332 max: 0.439345
smoothSolver:  Solving for Ux, Initial residual = 0.0010443, Final residual = 6.94518e-06, No Iterations 1
smoothSolver:  Solving for Uy, Initial residual = 0.00108566, Final residual = 6.4633e-06, No Iterations 1
DICPCG:  Solving for p, Initial residual = 0.0127288, Final residual = 8.46401e-07, No Iterations 132
time step continuity errors : sum local = 4.68119e-10, global = -2.79053e-12, cumulative = -9.24464e-10
DICPCG:  Solving for p, Initial residual = 0.000691408, Final residual = 9.36518e-07, No Iterations 75
time step continuity errors : sum local = 5.19604e-10, global = -9.12063e-11, cumulative = -1.01567e-09
ExecutionTime = 1.44 s  ClockTime = 2 s

Time = 0.0074

Courant Number mean: 0.122371 max: 0.437964
smoothSolver:  Solving for Ux, Initial residual = 0.0010503, Final residual = 6.93805e-06, No Iterations 1
smoothSolver:  Solving for Uy, Initial residual = 0.00108779, Final residual = 6.38108e-06, No Iterations 1
DICPCG:  Solving for p, Initial residual = 0.01258, Final residual = 8.92392e-07, No Iterations 132
time step continuity errors : sum local = 4.96555e-10, global = -3.14336e-12, cumulative = -1.01881e-09
DICPCG:  Solving for p, Initial residual = 0.000648207, Final residual = 9.44832e-07, No Iterations 55
time step continuity errors : sum local = 5.26955e-10, global = -9.40001e-11, cumulative = -1.11281e-09
ExecutionTime = 1.47 s  ClockTime = 2 s

Time = 0.0075

Courant Number mean: 0.122408 max: 0.436108
smoothSolver:  Solving for Ux, Initial residual = 0.00105483, Final residual = 6.91374e-06, No Iterations 1
smoothSolver:  Solving for Uy, Initial residual = 0.00108949, Final residual = 6.30189e-06, No Iterations 1
DICPCG:  Solving for p, Initial residual = 0.012576, Final residual = 8.68569e-07, No Iterations 108
time step continuity errors : sum local = 4.85691e-10, global = -4.32075e-11, cumulative = -1.15602e-09
DICPCG:  Solving for p, Initial residual = 0.000615231, Final residual = 8.26372e-07, No Iterations 119
time step continuity errors : sum local = 4.63285e-10, global = 3.104e-12, cumulative = -1.15292e-09
ExecutionTime = 1.48 s  ClockTime = 3 s

Time = 0.0076

Courant Number mean: 0.122445 max: 0.433782
smoothSolver:  Solving for Ux, Initial residual = 0.00105661, Final residual = 6.91839e-06, No Iterations 1
smoothSolver:  Solving for Uy, Initial residual = 0.0010922, Final residual = 6.2916e-06, No Iterations 1
DICPCG:  Solving for p, Initial residual = 0.0129703, Final residual = 7.99487e-07, No Iterations 132
time step continuity errors : sum local = 4.49305e-10, global = -2.70407e-12, cumulative = -1.15562e-09
DICPCG:  Solving for p, Initial residual = 0.00060946, Final residual = 9.65348e-07, No Iterations 122
time step continuity errors : sum local = 5.43698e-10, global = 8.00857e-13, cumulative = -1.15482e-09
ExecutionTime = 1.49 s  ClockTime = 3 s

Time = 0.0077

Courant Number mean: 0.12248 max: 0.431002
smoothSolver:  Solving for Ux, Initial residual = 0.00105699, Final residual = 6.95954e-06, No Iterations 1
smoothSolver:  Solving for Uy, Initial residual = 0.00109717, Final residual = 6.30488e-06, No Iterations 1
DICPCG:  Solving for p, Initial residual = 0.0135907, Final residual = 8.08066e-07, No Iterations 132
time step continuity errors : sum local = 4.56245e-10, global = -2.56483e-12, cumulative = -1.15739e-09
DICPCG:  Solving for p, Initial residual = 0.000659032, Final residual = 8.50002e-07, No Iterations 122
time step continuity errors : sum local = 4.80984e-10, global = 7.09548e-13, cumulative = -1.15668e-09
ExecutionTime = 1.52 s  ClockTime = 3 s

Time = 0.0078

Courant Number mean: 0.122515 max: 0.427785
smoothSolver:  Solving for Ux, Initial residual = 0.00105923, Final residual = 6.99249e-06, No Iterations 1
smoothSolver:  Solving for Uy, Initial residual = 0.00109986, Final residual = 6.38708e-06, No Iterations 1
DICPCG:  Solving for p, Initial residual = 0.0143808, Final residual = 8.46836e-07, No Iterations 132
time step continuity errors : sum local = 4.80341e-10, global = -2.2286e-12, cumulative = -1.1589e-09
DICPCG:  Solving for p, Initial residual = 0.00069406, Final residual = 9.6792e-07, No Iterations 122
time step continuity errors : sum local = 5.50161e-10, global = 1.36066e-12, cumulative = -1.15754e-09
ExecutionTime = 1.54 s  ClockTime = 3 s

Time = 0.0079

Courant Number mean: 0.12255 max: 0.424169
smoothSolver:  Solving for Ux, Initial residual = 0.00105986, Final residual = 7.00073e-06, No Iterations 1
smoothSolver:  Solving for Uy, Initial residual = 0.00110419, Final residual = 6.48173e-06, No Iterations 1
DICPCG:  Solving for p, Initial residual = 0.0145508, Final residual = 8.29573e-07, No Iterations 132
time step continuity errors : sum local = 4.72342e-10, global = -3.22588e-12, cumulative = -1.16077e-09
DICPCG:  Solving for p, Initial residual = 0.000734576, Final residual = 7.84089e-07, No Iterations 121
time step continuity errors : sum local = 4.47343e-10, global = 4.15193e-12, cumulative = -1.15662e-09
ExecutionTime = 1.56 s  ClockTime = 3 s

Time = 0.008

Courant Number mean: 0.122584 max: 0.420205
smoothSolver:  Solving for Ux, Initial residual = 0.00106283, Final residual = 7.00443e-06, No Iterations 1
smoothSolver:  Solving for Uy, Initial residual = 0.00110881, Final residual = 6.53616e-06, No Iterations 1
DICPCG:  Solving for p, Initial residual = 0.0141182, Final residual = 8.6024e-07, No Iterations 132
time step continuity errors : sum local = 4.91877e-10, global = -2.84142e-12, cumulative = -1.15946e-09
DICPCG:  Solving for p, Initial residual = 0.000715882, Final residual = 8.62339e-07, No Iterations 120
time step continuity errors : sum local = 4.94425e-10, global = 1.27923e-12, cumulative = -1.15818e-09
ExecutionTime = 1.58 s  ClockTime = 3 s

Time = 0.0081

Courant Number mean: 0.122618 max: 0.421221
smoothSolver:  Solving for Ux, Initial residual = 0.00106479, Final residual = 6.99648e-06, No Iterations 1
smoothSolver:  Solving for Uy, Initial residual = 0.00110888, Final residual = 6.62116e-06, No Iterations 1
DICPCG:  Solving for p, Initial residual = 0.0138417, Final residual = 9.34634e-07, No Iterations 132
time step continuity errors : sum local = 5.36909e-10, global = -1.82508e-12, cumulative = -1.16001e-09
DICPCG:  Solving for p, Initial residual = 0.000737716, Final residual = 8.77718e-07, No Iterations 120
time step continuity errors : sum local = 5.05534e-10, global = 2.95974e-12, cumulative = -1.15705e-09
ExecutionTime = 1.6 s  ClockTime = 3 s

Time = 0.0082

Courant Number mean: 0.122651 max: 0.426083
smoothSolver:  Solving for Ux, Initial residual = 0.00106625, Final residual = 6.99857e-06, No Iterations 1
smoothSolver:  Solving for Uy, Initial residual = 0.00110947, Final residual = 6.74796e-06, No Iterations 1
DICPCG:  Solving for p, Initial residual = 0.0142544, Final residual = 8.73918e-07, No Iterations 132
time step continuity errors : sum local = 5.04241e-10, global = -1.76741e-12, cumulative = -1.15881e-09
DICPCG:  Solving for p, Initial residual = 0.000776678, Final residual = 9.40423e-07, No Iterations 122
time step continuity errors : sum local = 5.43791e-10, global = -3.06004e-12, cumulative = -1.16187e-09
ExecutionTime = 1.62 s  ClockTime = 3 s

Time = 0.0083

Courant Number mean: 0.122685 max: 0.431211
smoothSolver:  Solving for Ux, Initial residual = 0.00106745, Final residual = 7.02379e-06, No Iterations 1
smoothSolver:  Solving for Uy, Initial residual = 0.00110943, Final residual = 6.89034e-06, No Iterations 1
DICPCG:  Solving for p, Initial residual = 0.0146154, Final residual = 6.87176e-07, No Iterations 132
time step continuity errors : sum local = 3.98555e-10, global = -1.63306e-12, cumulative = -1.16351e-09
DICPCG:  Solving for p, Initial residual = 0.000757112, Final residual = 7.47356e-07, No Iterations 123
time step continuity errors : sum local = 4.34644e-10, global = -8.18396e-13, cumulative = -1.16432e-09
ExecutionTime = 1.64 s  ClockTime = 3 s

Time = 0.0084

Courant Number mean: 0.122719 max: 0.436491
smoothSolver:  Solving for Ux, Initial residual = 0.00106604, Final residual = 7.03486e-06, No Iterations 1
smoothSolver:  Solving for Uy, Initial residual = 0.00110801, Final residual = 7.03882e-06, No Iterations 1
DICPCG:  Solving for p, Initial residual = 0.0152802, Final residual = 8.8478e-07, No Iterations 131
time step continuity errors : sum local = 5.16309e-10, global = -2.16309e-12, cumulative = -1.16649e-09
DICPCG:  Solving for p, Initial residual = 0.000794547, Final residual = 7.82023e-07, No Iterations 123
time step continuity errors : sum local = 4.57637e-10, global = -1.05881e-13, cumulative = -1.16659e-09
ExecutionTime = 1.65 s  ClockTime = 3 s

Time = 0.0085

Courant Number mean: 0.122751 max: 0.44181
smoothSolver:  Solving for Ux, Initial residual = 0.0010669, Final residual = 7.0614e-06, No Iterations 1
smoothSolver:  Solving for Uy, Initial residual = 0.00110889, Final residual = 7.18866e-06, No Iterations 1
DICPCG:  Solving for p, Initial residual = 0.0147028, Final residual = 8.49423e-07, No Iterations 132
time step continuity errors : sum local = 4.98923e-10, global = -2.29271e-12, cumulative = -1.16889e-09
DICPCG:  Solving for p, Initial residual = 0.00083333, Final residual = 9.16443e-07, No Iterations 121
time step continuity errors : sum local = 5.40586e-10, global = -7.46153e-13, cumulative = -1.16963e-09
ExecutionTime = 1.67 s  ClockTime = 3 s

Time = 0.0086

Courant Number mean: 0.122784 max: 0.447057
smoothSolver:  Solving for Ux, Initial residual = 0.00107239, Final residual = 7.09993e-06, No Iterations 1
smoothSolver:  Solving for Uy, Initial residual = 0.00111177, Final residual = 7.37465e-06, No Iterations 1
DICPCG:  Solving for p, Initial residual = 0.0146519, Final residual = 8.12881e-07, No Iterations 132
time step continuity errors : sum local = 4.81259e-10, global = -2.1404e-12, cumulative = -1.17177e-09
DICPCG:  Solving for p, Initial residual = 0.000820225, Final residual = 9.64923e-07, No Iterations 122
time step continuity errors : sum local = 5.73656e-10, global = -2.40429e-12, cumulative = -1.17418e-09
ExecutionTime = 1.69 s  ClockTime = 3 s

Time = 0.0087

Courant Number mean: 0.122816 max: 0.452129
smoothSolver:  Solving for Ux, Initial residual = 0.00107919, Final residual = 7.12208e-06, No Iterations 1
smoothSolver:  Solving for Uy, Initial residual = 0.00112139, Final residual = 7.5136e-06, No Iterations 1
DICPCG:  Solving for p, Initial residual = 0.014214, Final residual = 8.13988e-07, No Iterations 132
time step continuity errors : sum local = 4.85574e-10, global = -2.78029e-12, cumulative = -1.17696e-09
DICPCG:  Solving for p, Initial residual = 0.000811804, Final residual = 9.3444e-07, No Iterations 122
time step continuity errors : sum local = 5.59749e-10, global = -2.35527e-12, cumulative = -1.17931e-09
ExecutionTime = 1.71 s  ClockTime = 3 s

Time = 0.0088

Courant Number mean: 0.122848 max: 0.456921
smoothSolver:  Solving for Ux, Initial residual = 0.001086, Final residual = 7.18264e-06, No Iterations 1
smoothSolver:  Solving for Uy, Initial residual = 0.0011302, Final residual = 7.59992e-06, No Iterations 1
DICPCG:  Solving for p, Initial residual = 0.0143278, Final residual = 8.27175e-07, No Iterations 132
time step continuity errors : sum local = 4.97049e-10, global = -3.42691e-12, cumulative = -1.18274e-09
DICPCG:  Solving for p, Initial residual = 0.000816828, Final residual = 9.40189e-07, No Iterations 122
time step continuity errors : sum local = 5.67152e-10, global = -2.57156e-12, cumulative = -1.18531e-09
ExecutionTime = 1.73 s  ClockTime = 3 s

Time = 0.0089

Courant Number mean: 0.122883 max: 0.461337
smoothSolver:  Solving for Ux, Initial residual = 0.00109192, Final residual = 7.2415e-06, No Iterations 1
smoothSolver:  Solving for Uy, Initial residual = 0.00113693, Final residual = 7.75786e-06, No Iterations 1
DICPCG:  Solving for p, Initial residual = 0.015033, Final residual = 7.87637e-07, No Iterations 132
time step continuity errors : sum local = 4.7677e-10, global = -2.31099e-12, cumulative = -1.18762e-09
DICPCG:  Solving for p, Initial residual = 0.000864135, Final residual = 8.07047e-07, No Iterations 123
time step continuity errors : sum local = 4.90216e-10, global = -3.93901e-12, cumulative = -1.19156e-09
ExecutionTime = 1.75 s  ClockTime = 3 s

Time = 0.009

Courant Number mean: 0.122918 max: 0.465299
smoothSolver:  Solving for Ux, Initial residual = 0.00109506, Final residual = 7.29554e-06, No Iterations 1
smoothSolver:  Solving for Uy, Initial residual = 0.00113772, Final residual = 7.87304e-06, No Iterations 1
DICPCG:  Solving for p, Initial residual = 0.0159959, Final residual = 9.97111e-07, No Iterations 100
time step continuity errors : sum local = 6.0732e-10, global = 1.30785e-10, cumulative = -1.06078e-09
DICPCG:  Solving for p, Initial residual = 0.000901414, Final residual = 9.33169e-07, No Iterations 56
time step continuity errors : sum local = 5.6984e-10, global = -6.09374e-11, cumulative = -1.12171e-09
ExecutionTime = 1.76 s  ClockTime = 3 s

Time = 0.0091

Courant Number mean: 0.122957 max: 0.468754
smoothSolver:  Solving for Ux, Initial residual = 0.00109549, Final residual = 7.34177e-06, No Iterations 1
smoothSolver:  Solving for Uy, Initial residual = 0.00113976, Final residual = 7.99066e-06, No Iterations 1
DICPCG:  Solving for p, Initial residual = 0.0146366, Final residual = 6.8275e-07, No Iterations 132
time step continuity errors : sum local = 4.18128e-10, global = -1.78831e-12, cumulative = -1.1235e-09
DICPCG:  Solving for p, Initial residual = 0.000846952, Final residual = 6.67505e-07, No Iterations 123
time step continuity errors : sum local = 4.10252e-10, global = -1.52403e-12, cumulative = -1.12503e-09
ExecutionTime = 1.78 s  ClockTime = 3 s

Time = 0.0092

Courant Number mean: 0.122997 max: 0.471665
smoothSolver:  Solving for Ux, Initial residual = 0.00109836, Final residual = 7.38951e-06, No Iterations 1
smoothSolver:  Solving for Uy, Initial residual = 0.00114082, Final residual = 8.07075e-06, No Iterations 1
DICPCG:  Solving for p, Initial residual = 0.0147485, Final residual = 6.02127e-07, No Iterations 132
time step continuity errors : sum local = 3.71066e-10, global = -2.24227e-12, cumulative = -1.12727e-09
DICPCG:  Solving for p, Initial residual = 0.000845766, Final residual = 6.8238e-07, No Iterations 123
time step continuity errors : sum local = 4.22032e-10, global = -1.62434e-12, cumulative = -1.12889e-09
ExecutionTime = 1.8 s  ClockTime = 3 s

Time = 0.0093

Courant Number mean: 0.123039 max: 0.474013
smoothSolver:  Solving for Ux, Initial residual = 0.00110067, Final residual = 7.41029e-06, No Iterations 1
smoothSolver:  Solving for Uy, Initial residual = 0.00114627, Final residual = 8.09998e-06, No Iterations 1
DICPCG:  Solving for p, Initial residual = 0.0148512, Final residual = 6.73483e-07, No Iterations 132
time step continuity errors : sum local = 4.17543e-10, global = -5.34656e-13, cumulative = -1.12943e-09
DICPCG:  Solving for p, Initial residual = 0.000846752, Final residual = 7.47758e-07, No Iterations 123
time step continuity errors : sum local = 4.64378e-10, global = -3.32495e-13, cumulative = -1.12976e-09
ExecutionTime = 1.82 s  ClockTime = 3 s

Time = 0.0094

Courant Number mean: 0.123083 max: 0.475803
smoothSolver:  Solving for Ux, Initial residual = 0.0010972, Final residual = 7.39538e-06, No Iterations 1
smoothSolver:  Solving for Uy, Initial residual = 0.00114873, Final residual = 8.11646e-06, No Iterations 1
DICPCG:  Solving for p, Initial residual = 0.0152214, Final residual = 6.47794e-07, No Iterations 132
time step continuity errors : sum local = 4.03125e-10, global = -8.07091e-13, cumulative = -1.13057e-09
DICPCG:  Solving for p, Initial residual = 0.000835351, Final residual = 7.13327e-07, No Iterations 123
time step continuity errors : sum local = 4.44451e-10, global = -4.30507e-13, cumulative = -1.131e-09
ExecutionTime = 1.84 s  ClockTime = 3 s

Time = 0.0095

Courant Number mean: 0.123126 max: 0.477046
smoothSolver:  Solving for Ux, Initial residual = 0.00109196, Final residual = 7.36904e-06, No Iterations 1
smoothSolver:  Solving for Uy, Initial residual = 0.00115217, Final residual = 8.11109e-06, No Iterations 1
DICPCG:  Solving for p, Initial residual = 0.0144259, Final residual = 7.00747e-07, No Iterations 132
time step continuity errors : sum local = 4.37348e-10, global = -2.01052e-12, cumulative = -1.13301e-09
DICPCG:  Solving for p, Initial residual = 0.000792362, Final residual = 7.32234e-07, No Iterations 123
time step continuity errors : sum local = 4.57536e-10, global = -2.79882e-12, cumulative = -1.13581e-09
ExecutionTime = 1.86 s  ClockTime = 3 s

Time = 0.0096

Courant Number mean: 0.12317 max: 0.477761
smoothSolver:  Solving for Ux, Initial residual = 0.00108633, Final residual = 7.33064e-06, No Iterations 1
smoothSolver:  Solving for Uy, Initial residual = 0.00115772, Final residual = 8.12776e-06, No Iterations 1
DICPCG:  Solving for p, Initial residual = 0.0137404, Final residual = 8.60989e-07, No Iterations 107
time step continuity errors : sum local = 5.38765e-10, global = -1.166e-10, cumulative = -1.25241e-09
DICPCG:  Solving for p, Initial residual = 0.000758843, Final residual = 7.41498e-07, No Iterations 123
time step continuity errors : sum local = 4.6461e-10, global = -3.30506e-12, cumulative = -1.25571e-09
ExecutionTime = 1.88 s  ClockTime = 3 s

Time = 0.0097

Courant Number mean: 0.123213 max: 0.47798
smoothSolver:  Solving for Ux, Initial residual = 0.00108257, Final residual = 7.29399e-06, No Iterations 1
smoothSolver:  Solving for Uy, Initial residual = 0.00116513, Final residual = 8.14236e-06, No Iterations 1
DICPCG:  Solving for p, Initial residual = 0.0149833, Final residual = 8.51016e-07, No Iterations 132
time step continuity errors : sum local = 5.33697e-10, global = -2.72312e-12, cumulative = -1.25843e-09
DICPCG:  Solving for p, Initial residual = 0.000773344, Final residual = 8.9441e-07, No Iterations 120
time step continuity errors : sum local = 5.61674e-10, global = -5.60651e-12, cumulative = -1.26404e-09
ExecutionTime = 1.9 s  ClockTime = 3 s

Time = 0.0098

Courant Number mean: 0.123257 max: 0.477741
smoothSolver:  Solving for Ux, Initial residual = 0.00108023, Final residual = 7.28075e-06, No Iterations 1
smoothSolver:  Solving for Uy, Initial residual = 0.00117113, Final residual = 8.14827e-06, No Iterations 1
DICPCG:  Solving for p, Initial residual = 0.0152384, Final residual = 8.15202e-07, No Iterations 132
time step continuity errors : sum local = 5.12491e-10, global = -2.91915e-12, cumulative = -1.26696e-09
DICPCG:  Solving for p, Initial residual = 0.00078888, Final residual = 8.91239e-07, No Iterations 122
time step continuity errors : sum local = 5.61151e-10, global = 2.37067e-12, cumulative = -1.26459e-09
ExecutionTime = 1.91 s  ClockTime = 3 s

Time = 0.0099

Courant Number mean: 0.123304 max: 0.477088
smoothSolver:  Solving for Ux, Initial residual = 0.00107927, Final residual = 7.30216e-06, No Iterations 1
smoothSolver:  Solving for Uy, Initial residual = 0.00117164, Final residual = 8.1457e-06, No Iterations 1
DICPCG:  Solving for p, Initial residual = 0.0144663, Final residual = 8.37776e-07, No Iterations 131
time step continuity errors : sum local = 5.28227e-10, global = -2.9837e-12, cumulative = -1.26757e-09
DICPCG:  Solving for p, Initial residual = 0.000777829, Final residual = 9.75571e-07, No Iterations 37
time step continuity errors : sum local = 6.15534e-10, global = -1.08659e-10, cumulative = -1.37623e-09
ExecutionTime = 1.93 s  ClockTime = 3 s

Time = 0.01

Courant Number mean: 0.12335 max: 0.476074
smoothSolver:  Solving for Ux, Initial residual = 0.00107398, Final residual = 7.28004e-06, No Iterations 1
smoothSolver:  Solving for Uy, Initial residual = 0.00116566, Final residual = 8.16667e-06, No Iterations 1
DICPCG:  Solving for p, Initial residual = 0.014141, Final residual = 6.96577e-07, No Iterations 131
time step continuity errors : sum local = 4.3986e-10, global = -3.48893e-12, cumulative = -1.37972e-09
DICPCG:  Solving for p, Initial residual = 0.000774112, Final residual = 9.34452e-07, No Iterations 36
time step continuity errors : sum local = 5.90216e-10, global = -9.68449e-11, cumulative = -1.47657e-09
ExecutionTime = 1.94 s  ClockTime = 3 s

Time = 0.0101

Courant Number mean: 0.123397 max: 0.474763
smoothSolver:  Solving for Ux, Initial residual = 0.00106834, Final residual = 7.25076e-06, No Iterations 1
smoothSolver:  Solving for Uy, Initial residual = 0.00115826, Final residual = 8.17118e-06, No Iterations 1
DICPCG:  Solving for p, Initial residual = 0.014327, Final residual = 8.32596e-07, No Iterations 98
time step continuity errors : sum local = 5.26524e-10, global = -1.02172e-10, cumulative = -1.57874e-09
DICPCG:  Solving for p, Initial residual = 0.000795028, Final residual = 9.83534e-07, No Iterations 97
time step continuity errors : sum local = 6.22719e-10, global = -2.236e-11, cumulative = -1.6011e-09
ExecutionTime = 1.96 s  ClockTime = 3 s

Time = 0.0102

Courant Number mean: 0.123444 max: 0.473219
smoothSolver:  Solving for Ux, Initial residual = 0.00106561, Final residual = 7.22373e-06, No Iterations 1
smoothSolver:  Solving for Uy, Initial residual = 0.00115516, Final residual = 8.1817e-06, No Iterations 1
DICPCG:  Solving for p, Initial residual = 0.0138499, Final residual = 6.09332e-07, No Iterations 132
time step continuity errors : sum local = 3.86245e-10, global = -2.03868e-12, cumulative = -1.60314e-09
DICPCG:  Solving for p, Initial residual = 0.000770621, Final residual = 9.09921e-07, No Iterations 29
time step continuity errors : sum local = 5.77035e-10, global = -4.80754e-11, cumulative = -1.65121e-09
ExecutionTime = 1.97 s  ClockTime = 3 s

Time = 0.0103

Courant Number mean: 0.123492 max: 0.471493
smoothSolver:  Solving for Ux, Initial residual = 0.00106325, Final residual = 7.22115e-06, No Iterations 1
smoothSolver:  Solving for Uy, Initial residual = 0.00115613, Final residual = 8.16325e-06, No Iterations 1
DICPCG:  Solving for p, Initial residual = 0.0141532, Final residual = 9.99573e-07, No Iterations 131
time step continuity errors : sum local = 6.34626e-10, global = -4.13546e-12, cumulative = -1.65535e-09
DICPCG:  Solving for p, Initial residual = 0.000799649, Final residual = 9.04238e-07, No Iterations 28
time step continuity errors : sum local = 5.74235e-10, global = -2.93852e-11, cumulative = -1.68473e-09
ExecutionTime = 1.98 s  ClockTime = 3 s

Time = 0.0104

Courant Number mean: 0.123538 max: 0.469635
smoothSolver:  Solving for Ux, Initial residual = 0.00106275, Final residual = 7.21786e-06, No Iterations 1
smoothSolver:  Solving for Uy, Initial residual = 0.00115597, Final residual = 8.14269e-06, No Iterations 1
DICPCG:  Solving for p, Initial residual = 0.0139047, Final residual = 9.86885e-07, No Iterations 131
time step continuity errors : sum local = 6.2764e-10, global = -4.39155e-12, cumulative = -1.68912e-09
DICPCG:  Solving for p, Initial residual = 0.000820707, Final residual = 9.58346e-07, No Iterations 27
time step continuity errors : sum local = 6.09723e-10, global = -1.99331e-11, cumulative = -1.70906e-09
ExecutionTime = 2 s  ClockTime = 3 s

Time = 0.0105

Courant Number mean: 0.123584 max: 0.467686
smoothSolver:  Solving for Ux, Initial residual = 0.0010642, Final residual = 7.19851e-06, No Iterations 1
smoothSolver:  Solving for Uy, Initial residual = 0.00115521, Final residual = 8.14481e-06, No Iterations 1
DICPCG:  Solving for p, Initial residual = 0.0139371, Final residual = 9.8469e-07, No Iterations 131
time step continuity errors : sum local = 6.2729e-10, global = -4.45499e-12, cumulative = -1.71351e-09
DICPCG:  Solving for p, Initial residual = 0.000843252, Final residual = 9.78275e-07, No Iterations 26
time step continuity errors : sum local = 6.23327e-10, global = -1.39656e-11, cumulative = -1.72748e-09
ExecutionTime = 2.01 s  ClockTime = 4 s

Time = 0.0106

Courant Number mean: 0.123628 max: 0.465681
smoothSolver:  Solving for Ux, Initial residual = 0.00106568, Final residual = 7.16945e-06, No Iterations 1
smoothSolver:  Solving for Uy, Initial residual = 0.00115533, Final residual = 8.16252e-06, No Iterations 1
DICPCG:  Solving for p, Initial residual = 0.0139454, Final residual = 9.80919e-07, No Iterations 131
time step continuity errors : sum local = 6.2574e-10, global = -4.14668e-12, cumulative = -1.73163e-09
DICPCG:  Solving for p, Initial residual = 0.000862003, Final residual = 9.59113e-07, No Iterations 27
time step continuity errors : sum local = 6.11907e-10, global = -1.94594e-11, cumulative = -1.75108e-09
ExecutionTime = 2.02 s  ClockTime = 4 s

Time = 0.0107

Courant Number mean: 0.123672 max: 0.463649
smoothSolver:  Solving for Ux, Initial residual = 0.00106731, Final residual = 7.14899e-06, No Iterations 1
smoothSolver:  Solving for Uy, Initial residual = 0.00115675, Final residual = 8.14526e-06, No Iterations 1
DICPCG:  Solving for p, Initial residual = 0.0137584, Final residual = 9.71811e-07, No Iterations 131
time step continuity errors : sum local = 6.20732e-10, global = -4.10028e-12, cumulative = -1.75518e-09
DICPCG:  Solving for p, Initial residual = 0.000863838, Final residual = 8.70828e-07, No Iterations 28
time step continuity errors : sum local = 5.56287e-10, global = -2.76049e-11, cumulative = -1.78279e-09
ExecutionTime = 2.04 s  ClockTime = 4 s

Time = 0.0108

Courant Number mean: 0.123714 max: 0.461611
smoothSolver:  Solving for Ux, Initial residual = 0.00106864, Final residual = 7.13251e-06, No Iterations 1
smoothSolver:  Solving for Uy, Initial residual = 0.00115785, Final residual = 8.07074e-06, No Iterations 1
DICPCG:  Solving for p, Initial residual = 0.0136268, Final residual = 7.24291e-07, No Iterations 128
time step continuity errors : sum local = 4.62878e-10, global = 2.41229e-12, cumulative = -1.78038e-09
DICPCG:  Solving for p, Initial residual = 0.000861159, Final residual = 9.88486e-07, No Iterations 29
time step continuity errors : sum local = 6.3054e-10, global = -5.05224e-11, cumulative = -1.8309e-09
ExecutionTime = 2.05 s  ClockTime = 4 s

[...]
DICPCG:  Solving for p, Initial residual = 0.000591379, Final residual = 9.4915e-07, No Iterations 30
time step continuity errors : sum local = 9.26166e-10, global = -2.78945e-11, cumulative = -2.7809e-08
ExecutionTime = 70.82 s  ClockTime = 143 s

Time = 0.4974

Courant Number mean: 0.144083 max: 0.378973
smoothSolver:  Solving for Ux, Initial residual = 0.00128553, Final residual = 8.67407e-06, No Iterations 1
smoothSolver:  Solving for Uy, Initial residual = 0.00144456, Final residual = 1.48263e-07, No Iterations 2
DICPCG:  Solving for p, Initial residual = 0.0103159, Final residual = 9.18369e-07, No Iterations 130
time step continuity errors : sum local = 8.95345e-10, global = 7.85657e-12, cumulative = -2.78011e-08
DICPCG:  Solving for p, Initial residual = 0.000599873, Final residual = 8.8871e-07, No Iterations 30
time step continuity errors : sum local = 8.67026e-10, global = -1.72114e-11, cumulative = -2.78183e-08
ExecutionTime = 70.83 s  ClockTime = 143 s

Time = 0.4975

Courant Number mean: 0.144064 max: 0.37897
smoothSolver:  Solving for Ux, Initial residual = 0.00128243, Final residual = 8.64599e-06, No Iterations 1
smoothSolver:  Solving for Uy, Initial residual = 0.00144102, Final residual = 1.48003e-07, No Iterations 2
DICPCG:  Solving for p, Initial residual = 0.0102959, Final residual = 7.48182e-07, No Iterations 128
time step continuity errors : sum local = 7.29107e-10, global = -1.33875e-12, cumulative = -2.78197e-08
DICPCG:  Solving for p, Initial residual = 0.000604465, Final residual = 9.68268e-07, No Iterations 28
time step continuity errors : sum local = 9.44025e-10, global = -1.67401e-11, cumulative = -2.78364e-08
ExecutionTime = 70.85 s  ClockTime = 143 s

Time = 0.4976

Courant Number mean: 0.144045 max: 0.378968
smoothSolver:  Solving for Ux, Initial residual = 0.00127901, Final residual = 8.63187e-06, No Iterations 1
smoothSolver:  Solving for Uy, Initial residual = 0.00143783, Final residual = 1.47832e-07, No Iterations 2
DICPCG:  Solving for p, Initial residual = 0.0102791, Final residual = 9.15178e-07, No Iterations 131
time step continuity errors : sum local = 8.91422e-10, global = -8.1357e-13, cumulative = -2.78372e-08
DICPCG:  Solving for p, Initial residual = 0.000599022, Final residual = 9.36361e-07, No Iterations 30
time step continuity errors : sum local = 9.12534e-10, global = -2.58995e-11, cumulative = -2.78631e-08
ExecutionTime = 70.86 s  ClockTime = 143 s

Time = 0.4977

Courant Number mean: 0.144027 max: 0.378965
smoothSolver:  Solving for Ux, Initial residual = 0.00127592, Final residual = 8.61234e-06, No Iterations 1
smoothSolver:  Solving for Uy, Initial residual = 0.00143528, Final residual = 1.47644e-07, No Iterations 2
DICPCG:  Solving for p, Initial residual = 0.0111342, Final residual = 8.4426e-07, No Iterations 131
time step continuity errors : sum local = 8.21844e-10, global = 1.94537e-12, cumulative = -2.78612e-08
DICPCG:  Solving for p, Initial residual = 0.000625246, Final residual = 9.84248e-07, No Iterations 30
time step continuity errors : sum local = 9.58621e-10, global = -2.64985e-11, cumulative = -2.78877e-08
ExecutionTime = 70.87 s  ClockTime = 143 s

Time = 0.4978

Courant Number mean: 0.144007 max: 0.37896
smoothSolver:  Solving for Ux, Initial residual = 0.00127249, Final residual = 8.58731e-06, No Iterations 1
smoothSolver:  Solving for Uy, Initial residual = 0.00143462, Final residual = 1.47502e-07, No Iterations 2
DICPCG:  Solving for p, Initial residual = 0.0105278, Final residual = 8.6995e-07, No Iterations 131
time step continuity errors : sum local = 8.46766e-10, global = -1.78607e-13, cumulative = -2.78879e-08
DICPCG:  Solving for p, Initial residual = 0.000599937, Final residual = 9.29688e-07, No Iterations 30
time step continuity errors : sum local = 9.05887e-10, global = -3.26745e-11, cumulative = -2.79205e-08
ExecutionTime = 70.89 s  ClockTime = 143 s

Time = 0.4979

Courant Number mean: 0.143988 max: 0.378952
smoothSolver:  Solving for Ux, Initial residual = 0.0012706, Final residual = 8.56512e-06, No Iterations 1
smoothSolver:  Solving for Uy, Initial residual = 0.00143169, Final residual = 1.46819e-07, No Iterations 2
DICPCG:  Solving for p, Initial residual = 0.0110406, Final residual = 7.92621e-07, No Iterations 128
time step continuity errors : sum local = 7.71461e-10, global = 2.91064e-14, cumulative = -2.79205e-08
DICPCG:  Solving for p, Initial residual = 0.000626294, Final residual = 9.01034e-07, No Iterations 31
time step continuity errors : sum local = 8.76969e-10, global = -3.29012e-11, cumulative = -2.79534e-08
ExecutionTime = 70.89 s  ClockTime = 143 s

Time = 0.498

Courant Number mean: 0.143971 max: 0.378944
smoothSolver:  Solving for Ux, Initial residual = 0.00126889, Final residual = 8.55033e-06, No Iterations 1
smoothSolver:  Solving for Uy, Initial residual = 0.0014305, Final residual = 1.46267e-07, No Iterations 2
DICPCG:  Solving for p, Initial residual = 0.0108229, Final residual = 7.31518e-07, No Iterations 132
time step continuity errors : sum local = 7.11461e-10, global = -4.94618e-12, cumulative = -2.79584e-08
DICPCG:  Solving for p, Initial residual = 0.000630565, Final residual = 9.98493e-07, No Iterations 30
time step continuity errors : sum local = 9.71814e-10, global = -3.34689e-11, cumulative = -2.79918e-08
ExecutionTime = 70.91 s  ClockTime = 143 s

Time = 0.4981

Courant Number mean: 0.143954 max: 0.37893
smoothSolver:  Solving for Ux, Initial residual = 0.0012658, Final residual = 8.52115e-06, No Iterations 1
smoothSolver:  Solving for Uy, Initial residual = 0.00142787, Final residual = 1.46085e-07, No Iterations 2
DICPCG:  Solving for p, Initial residual = 0.0104509, Final residual = 8.29682e-07, No Iterations 131
time step continuity errors : sum local = 8.07126e-10, global = -3.24627e-12, cumulative = -2.79951e-08
DICPCG:  Solving for p, Initial residual = 0.000620825, Final residual = 9.8748e-07, No Iterations 29
time step continuity errors : sum local = 9.61537e-10, global = -2.95646e-11, cumulative = -2.80246e-08
ExecutionTime = 70.92 s  ClockTime = 143 s

Time = 0.4982

Courant Number mean: 0.143937 max: 0.378915
smoothSolver:  Solving for Ux, Initial residual = 0.00126358, Final residual = 8.49263e-06, No Iterations 1
smoothSolver:  Solving for Uy, Initial residual = 0.00142557, Final residual = 1.4558e-07, No Iterations 2
DICPCG:  Solving for p, Initial residual = 0.00997533, Final residual = 8.24067e-07, No Iterations 131
time step continuity errors : sum local = 8.02016e-10, global = -6.71639e-12, cumulative = -2.80314e-08
DICPCG:  Solving for p, Initial residual = 0.000605151, Final residual = 8.85527e-07, No Iterations 30
time step continuity errors : sum local = 8.62703e-10, global = -2.00408e-11, cumulative = -2.80514e-08
ExecutionTime = 70.94 s  ClockTime = 143 s

Time = 0.4983

Courant Number mean: 0.143919 max: 0.378898
smoothSolver:  Solving for Ux, Initial residual = 0.001262, Final residual = 8.47325e-06, No Iterations 1
smoothSolver:  Solving for Uy, Initial residual = 0.00142295, Final residual = 1.4499e-07, No Iterations 2
DICPCG:  Solving for p, Initial residual = 0.0105049, Final residual = 8.60043e-07, No Iterations 131
time step continuity errors : sum local = 8.37112e-10, global = -6.05429e-12, cumulative = -2.80574e-08
DICPCG:  Solving for p, Initial residual = 0.000647404, Final residual = 9.7369e-07, No Iterations 29
time step continuity errors : sum local = 9.48279e-10, global = -2.60467e-11, cumulative = -2.80835e-08
ExecutionTime = 70.95 s  ClockTime = 143 s

Time = 0.4984

Courant Number mean: 0.143901 max: 0.378879
smoothSolver:  Solving for Ux, Initial residual = 0.00125906, Final residual = 8.44151e-06, No Iterations 1
smoothSolver:  Solving for Uy, Initial residual = 0.0014204, Final residual = 1.45083e-07, No Iterations 2
DICPCG:  Solving for p, Initial residual = 0.0101211, Final residual = 8.0238e-07, No Iterations 131
time step continuity errors : sum local = 7.81053e-10, global = -4.6401e-12, cumulative = -2.80881e-08
DICPCG:  Solving for p, Initial residual = 0.000591886, Final residual = 9.24769e-07, No Iterations 30
time step continuity errors : sum local = 9.01139e-10, global = -2.60955e-11, cumulative = -2.81142e-08
ExecutionTime = 70.96 s  ClockTime = 143 s

Time = 0.4985

Courant Number mean: 0.143882 max: 0.378855
smoothSolver:  Solving for Ux, Initial residual = 0.00125635, Final residual = 8.41309e-06, No Iterations 1
smoothSolver:  Solving for Uy, Initial residual = 0.00141852, Final residual = 1.44884e-07, No Iterations 2
DICPCG:  Solving for p, Initial residual = 0.00999867, Final residual = 8.13591e-07, No Iterations 131
time step continuity errors : sum local = 7.92439e-10, global = -4.87462e-12, cumulative = -2.81191e-08
DICPCG:  Solving for p, Initial residual = 0.000588782, Final residual = 9.83615e-07, No Iterations 29
time step continuity errors : sum local = 9.59001e-10, global = -2.46651e-11, cumulative = -2.81438e-08
ExecutionTime = 70.98 s  ClockTime = 143 s

Time = 0.4986

Courant Number mean: 0.143862 max: 0.378829
smoothSolver:  Solving for Ux, Initial residual = 0.0012538, Final residual = 8.39222e-06, No Iterations 1
smoothSolver:  Solving for Uy, Initial residual = 0.00141673, Final residual = 1.44617e-07, No Iterations 2
DICPCG:  Solving for p, Initial residual = 0.0100251, Final residual = 8.19167e-07, No Iterations 131
time step continuity errors : sum local = 7.98302e-10, global = -3.96915e-12, cumulative = -2.81477e-08
DICPCG:  Solving for p, Initial residual = 0.000592436, Final residual = 9.99317e-07, No Iterations 30
time step continuity errors : sum local = 9.74854e-10, global = -2.18506e-11, cumulative = -2.81696e-08
ExecutionTime = 70.99 s  ClockTime = 143 s

Time = 0.4987

Courant Number mean: 0.143841 max: 0.378799
smoothSolver:  Solving for Ux, Initial residual = 0.00125144, Final residual = 8.37696e-06, No Iterations 1
smoothSolver:  Solving for Uy, Initial residual = 0.00141395, Final residual = 1.44179e-07, No Iterations 2
DICPCG:  Solving for p, Initial residual = 0.010259, Final residual = 7.75105e-07, No Iterations 131
time step continuity errors : sum local = 7.55881e-10, global = -1.88733e-12, cumulative = -2.81715e-08
DICPCG:  Solving for p, Initial residual = 0.000585181, Final residual = 9.27892e-07, No Iterations 31
time step continuity errors : sum local = 9.06252e-10, global = -4.65891e-11, cumulative = -2.82181e-08
ExecutionTime = 71 s  ClockTime = 143 s

Time = 0.4988

Courant Number mean: 0.14382 max: 0.378768
smoothSolver:  Solving for Ux, Initial residual = 0.00124858, Final residual = 8.36e-06, No Iterations 1
smoothSolver:  Solving for Uy, Initial residual = 0.00141163, Final residual = 1.43653e-07, No Iterations 2
DICPCG:  Solving for p, Initial residual = 0.0101056, Final residual = 9.257e-07, No Iterations 131
time step continuity errors : sum local = 9.03674e-10, global = -2.26768e-12, cumulative = -2.82203e-08
DICPCG:  Solving for p, Initial residual = 0.000578853, Final residual = 9.63458e-07, No Iterations 18
time step continuity errors : sum local = 9.41564e-10, global = -2.9856e-11, cumulative = -2.82502e-08
ExecutionTime = 71.02 s  ClockTime = 143 s

Time = 0.4989

Courant Number mean: 0.1438 max: 0.378733
smoothSolver:  Solving for Ux, Initial residual = 0.00124654, Final residual = 8.34023e-06, No Iterations 1
smoothSolver:  Solving for Uy, Initial residual = 0.00140885, Final residual = 9.99216e-06, No Iterations 1
DICPCG:  Solving for p, Initial residual = 0.010163, Final residual = 9.99931e-07, No Iterations 131
time step continuity errors : sum local = 9.76689e-10, global = -1.9765e-12, cumulative = -2.82522e-08
DICPCG:  Solving for p, Initial residual = 0.000585256, Final residual = 9.5366e-07, No Iterations 29
time step continuity errors : sum local = 9.31876e-10, global = 4.70912e-12, cumulative = -2.82475e-08
ExecutionTime = 71.04 s  ClockTime = 143 s

Time = 0.499

Courant Number mean: 0.14378 max: 0.378694
smoothSolver:  Solving for Ux, Initial residual = 0.0012438, Final residual = 8.33031e-06, No Iterations 1
smoothSolver:  Solving for Uy, Initial residual = 0.00140681, Final residual = 9.96988e-06, No Iterations 1
DICPCG:  Solving for p, Initial residual = 0.0105955, Final residual = 7.52556e-07, No Iterations 132
time step continuity errors : sum local = 7.34385e-10, global = -2.73361e-12, cumulative = -2.82502e-08
DICPCG:  Solving for p, Initial residual = 0.000590002, Final residual = 9.2366e-07, No Iterations 28
time step continuity errors : sum local = 9.00623e-10, global = -1.1533e-11, cumulative = -2.82617e-08
ExecutionTime = 71.05 s  ClockTime = 143 s

Time = 0.4991

Courant Number mean: 0.143761 max: 0.378654
smoothSolver:  Solving for Ux, Initial residual = 0.00124186, Final residual = 8.30731e-06, No Iterations 1
smoothSolver:  Solving for Uy, Initial residual = 0.00140145, Final residual = 9.92457e-06, No Iterations 1
DICPCG:  Solving for p, Initial residual = 0.0107005, Final residual = 7.60906e-07, No Iterations 128
time step continuity errors : sum local = 7.4125e-10, global = -2.42552e-12, cumulative = -2.82641e-08
DICPCG:  Solving for p, Initial residual = 0.000624375, Final residual = 8.8821e-07, No Iterations 31
time step continuity errors : sum local = 8.66138e-10, global = -4.3078e-11, cumulative = -2.83072e-08
ExecutionTime = 71.07 s  ClockTime = 143 s

Time = 0.4992

Courant Number mean: 0.143744 max: 0.37861
smoothSolver:  Solving for Ux, Initial residual = 0.00124056, Final residual = 8.29673e-06, No Iterations 1
smoothSolver:  Solving for Uy, Initial residual = 0.001398, Final residual = 9.89857e-06, No Iterations 1
DICPCG:  Solving for p, Initial residual = 0.0106463, Final residual = 7.36446e-07, No Iterations 131
time step continuity errors : sum local = 7.17093e-10, global = -3.67092e-12, cumulative = -2.83109e-08
DICPCG:  Solving for p, Initial residual = 0.000616931, Final residual = 9.42535e-07, No Iterations 29
time step continuity errors : sum local = 9.17883e-10, global = -1.40081e-12, cumulative = -2.83123e-08
ExecutionTime = 71.08 s  ClockTime = 143 s

Time = 0.4993

Courant Number mean: 0.143729 max: 0.378564
smoothSolver:  Solving for Ux, Initial residual = 0.00124051, Final residual = 8.28758e-06, No Iterations 1
smoothSolver:  Solving for Uy, Initial residual = 0.00139413, Final residual = 9.87618e-06, No Iterations 1
DICPCG:  Solving for p, Initial residual = 0.0104299, Final residual = 7.63342e-07, No Iterations 131
time step continuity errors : sum local = 7.42235e-10, global = -1.05405e-12, cumulative = -2.83134e-08
DICPCG:  Solving for p, Initial residual = 0.000595736, Final residual = 9.2277e-07, No Iterations 38
time step continuity errors : sum local = 8.97546e-10, global = -4.41082e-11, cumulative = -2.83575e-08
ExecutionTime = 71.08 s  ClockTime = 143 s

Time = 0.4994

Courant Number mean: 0.143713 max: 0.378515
smoothSolver:  Solving for Ux, Initial residual = 0.00124034, Final residual = 8.27898e-06, No Iterations 1
smoothSolver:  Solving for Uy, Initial residual = 0.00139128, Final residual = 9.86338e-06, No Iterations 1
DICPCG:  Solving for p, Initial residual = 0.0106272, Final residual = 7.7716e-07, No Iterations 131
time step continuity errors : sum local = 7.55165e-10, global = 2.16824e-12, cumulative = -2.83553e-08
DICPCG:  Solving for p, Initial residual = 0.000627543, Final residual = 8.92788e-07, No Iterations 30
time step continuity errors : sum local = 8.68295e-10, global = -1.40786e-11, cumulative = -2.83694e-08
ExecutionTime = 71.11 s  ClockTime = 143 s

Time = 0.4995

Courant Number mean: 0.143698 max: 0.378463
smoothSolver:  Solving for Ux, Initial residual = 0.00123913, Final residual = 8.24365e-06, No Iterations 1
smoothSolver:  Solving for Uy, Initial residual = 0.00138843, Final residual = 9.8534e-06, No Iterations 1
DICPCG:  Solving for p, Initial residual = 0.0104216, Final residual = 7.61196e-07, No Iterations 131
time step continuity errors : sum local = 7.39322e-10, global = -4.10272e-13, cumulative = -2.83698e-08
DICPCG:  Solving for p, Initial residual = 0.000610857, Final residual = 9.47931e-07, No Iterations 30
time step continuity errors : sum local = 9.21518e-10, global = -1.93635e-11, cumulative = -2.83891e-08
ExecutionTime = 71.12 s  ClockTime = 143 s

Time = 0.4996

Courant Number mean: 0.143683 max: 0.37841
smoothSolver:  Solving for Ux, Initial residual = 0.00123828, Final residual = 8.2227e-06, No Iterations 1
smoothSolver:  Solving for Uy, Initial residual = 0.00138694, Final residual = 9.82693e-06, No Iterations 1
DICPCG:  Solving for p, Initial residual = 0.0105666, Final residual = 7.87848e-07, No Iterations 129
time step continuity errors : sum local = 7.65327e-10, global = -4.03125e-12, cumulative = -2.83932e-08
DICPCG:  Solving for p, Initial residual = 0.000611818, Final residual = 9.69354e-07, No Iterations 30
time step continuity errors : sum local = 9.42735e-10, global = -3.13261e-11, cumulative = -2.84245e-08
ExecutionTime = 71.14 s  ClockTime = 143 s

Time = 0.4997

Courant Number mean: 0.143669 max: 0.378354
smoothSolver:  Solving for Ux, Initial residual = 0.00123619, Final residual = 8.20409e-06, No Iterations 1
smoothSolver:  Solving for Uy, Initial residual = 0.0013854, Final residual = 9.804e-06, No Iterations 1
DICPCG:  Solving for p, Initial residual = 0.0109158, Final residual = 7.61063e-07, No Iterations 132
time step continuity errors : sum local = 7.39556e-10, global = 5.67154e-13, cumulative = -2.84239e-08
DICPCG:  Solving for p, Initial residual = 0.000626691, Final residual = 9.41959e-07, No Iterations 29
time step continuity errors : sum local = 9.16196e-10, global = -1.58263e-11, cumulative = -2.84398e-08
ExecutionTime = 71.15 s  ClockTime = 143 s

Time = 0.4998

Courant Number mean: 0.143655 max: 0.378294
smoothSolver:  Solving for Ux, Initial residual = 0.00123417, Final residual = 8.16679e-06, No Iterations 1
smoothSolver:  Solving for Uy, Initial residual = 0.00138398, Final residual = 9.78474e-06, No Iterations 1
DICPCG:  Solving for p, Initial residual = 0.0100661, Final residual = 7.97406e-07, No Iterations 131
time step continuity errors : sum local = 7.75073e-10, global = 1.28119e-12, cumulative = -2.84385e-08
DICPCG:  Solving for p, Initial residual = 0.000581994, Final residual = 9.56816e-07, No Iterations 30
time step continuity errors : sum local = 9.31184e-10, global = -3.11356e-11, cumulative = -2.84696e-08
ExecutionTime = 71.16 s  ClockTime = 143 s

Time = 0.4999

Courant Number mean: 0.143641 max: 0.378233
smoothSolver:  Solving for Ux, Initial residual = 0.00123252, Final residual = 8.14409e-06, No Iterations 1
smoothSolver:  Solving for Uy, Initial residual = 0.00138203, Final residual = 9.75127e-06, No Iterations 1
DICPCG:  Solving for p, Initial residual = 0.0100612, Final residual = 7.87424e-07, No Iterations 131
time step continuity errors : sum local = 7.65708e-10, global = 4.89269e-12, cumulative = -2.84647e-08
DICPCG:  Solving for p, Initial residual = 0.000585838, Final residual = 9.55562e-07, No Iterations 31
time step continuity errors : sum local = 9.29633e-10, global = -4.14856e-11, cumulative = -2.85062e-08
ExecutionTime = 71.18 s  ClockTime = 143 s

Time = 0.5

Courant Number mean: 0.143626 max: 0.378177
smoothSolver:  Solving for Ux, Initial residual = 0.0012316, Final residual = 8.13431e-06, No Iterations 1
smoothSolver:  Solving for Uy, Initial residual = 0.0013811, Final residual = 9.73114e-06, No Iterations 1
DICPCG:  Solving for p, Initial residual = 0.00999864, Final residual = 9.07723e-07, No Iterations 131
time step continuity errors : sum local = 8.82653e-10, global = 4.29173e-12, cumulative = -2.85019e-08
DICPCG:  Solving for p, Initial residual = 0.000592671, Final residual = 9.80279e-07, No Iterations 29
time step continuity errors : sum local = 9.54338e-10, global = -1.6774e-11, cumulative = -2.85187e-08
ExecutionTime = 71.22 s  ClockTime = 143 s

End

