/*---------------------------------------------------------------------------*\
| =========                 |                                                 |
| \\      /  F ield         | OpenFOAM: The Open Source CFD Toolbox           |
|  \\    /   O peration     | Version:  2306                                  |
|   \\  /    A nd           | Website:  www.openfoam.com                      |
|    \\/     M anipulation  |                                                 |
\*---------------------------------------------------------------------------*/
Build  : _fbf00d6bf2-20230626 OPENFOAM=2306 version=v2306
Arch   : "LSB;label=32;scalar=64"
Exec   : icoFoam -parallel
Date   : Nov 01 2023
Time   : 22:41:39
Host   : JCDesktop
PID    : 617
I/O    : uncollated
Case   : /mnt/c/Users/joaoc/Desktop/FoamIberia/cavityOrig
nProcs : 4
Hosts  :
(
    (JCDesktop 4)
)
Pstream initialized with:
    floatTransfer      : false
    nProcsSimpleSum    : 0
    nonBlockingExchange: 0 (tuning: 0)
    exchange algorithm : -1
    commsType          : nonBlocking
    polling iterations : 0
trapFpe: Floating point exception trapping enabled (FOAM_SIGFPE).
fileModificationChecking : Monitoring run-time modified files using timeStampMaster (fileModificationSkew 5, maxFileModificationPolls 20)
allowSystemOperations : Allowing user-supplied system call operations

// * * * * * * * * * * * * * * * * * * * * * * * * * * * * * * * * * * * * * //
Create time

Create mesh for time = 0


PISO: Operating solver in PISO mode

Reading transportProperties

Reading field p

Reading field U

Reading/calculating face flux field phi


Starting time loop

Time = 0.0001

Courant Number mean: 0.000227273 max: 0.1
smoothSolver:  Solving for Ux, Initial residual = 1, Final residual = 1.42055e-09, No Iterations 2
smoothSolver:  Solving for Uy, Initial residual = 0, Final residual = 0, No Iterations 0
DICPCG:  Solving for p, Initial residual = 1, Final residual = 9.01243e-07, No Iterations 325
time step continuity errors : sum local = 4.09656e-10, global = 2.32017e-12, cumulative = 2.32017e-12
DICPCG:  Solving for p, Initial residual = 2.68301e-05, Final residual = 9.89666e-07, No Iterations 265
time step continuity errors : sum local = 3.94716e-07, global = -1.8768e-09, cumulative = -1.87448e-09
ExecutionTime = 0.24 s  ClockTime = 0 s

Time = 0.0002

Courant Number mean: 0.240911 max: 1.25237
smoothSolver:  Solving for Ux, Initial residual = 0.431271, Final residual = 1.9454e-06, No Iterations 4
smoothSolver:  Solving for Uy, Initial residual = 0.318451, Final residual = 3.88655e-06, No Iterations 4
DICPCG:  Solving for p, Initial residual = 0.00219095, Final residual = 8.4072e-07, No Iterations 297
time step continuity errors : sum local = 2.75876e-07, global = -7.00739e-10, cumulative = -2.57522e-09
DICPCG:  Solving for p, Initial residual = 0.0539704, Final residual = 9.33096e-07, No Iterations 306
time step continuity errors : sum local = 4.7515e-09, global = -1.77288e-11, cumulative = -2.59295e-09
ExecutionTime = 0.3 s  ClockTime = 0 s

Time = 0.0003

Courant Number mean: 0.240912 max: 1.24204
smoothSolver:  Solving for Ux, Initial residual = 0.0014013, Final residual = 6.74382e-06, No Iterations 2
smoothSolver:  Solving for Uy, Initial residual = 0.00101719, Final residual = 8.53329e-06, No Iterations 2
DICPCG:  Solving for p, Initial residual = 0.041481, Final residual = 9.51393e-07, No Iterations 297
time step continuity errors : sum local = 8.71243e-10, global = 1.53957e-12, cumulative = -2.59141e-09
DICPCG:  Solving for p, Initial residual = 0.007932, Final residual = 9.12656e-07, No Iterations 283
time step continuity errors : sum local = 7.99749e-10, global = 1.73596e-12, cumulative = -2.58967e-09
ExecutionTime = 0.36 s  ClockTime = 0 s

Time = 0.0004

Courant Number mean: 0.240914 max: 1.22336
smoothSolver:  Solving for Ux, Initial residual = 0.00128833, Final residual = 5.49635e-06, No Iterations 2
smoothSolver:  Solving for Uy, Initial residual = 0.000965661, Final residual = 6.56194e-06, No Iterations 2
DICPCG:  Solving for p, Initial residual = 0.043921, Final residual = 8.6554e-07, No Iterations 295
time step continuity errors : sum local = 7.56268e-10, global = -4.21138e-13, cumulative = -2.59009e-09
DICPCG:  Solving for p, Initial residual = 0.0092735, Final residual = 8.71494e-07, No Iterations 283
time step continuity errors : sum local = 7.76289e-10, global = 4.77847e-12, cumulative = -2.58531e-09
ExecutionTime = 0.42 s  ClockTime = 0 s

Time = 0.0005

Courant Number mean: 0.24092 max: 1.20786
smoothSolver:  Solving for Ux, Initial residual = 0.00129084, Final residual = 4.29632e-06, No Iterations 2
smoothSolver:  Solving for Uy, Initial residual = 0.000983835, Final residual = 4.85905e-06, No Iterations 2
DICPCG:  Solving for p, Initial residual = 0.0332742, Final residual = 8.59096e-07, No Iterations 289
time step continuity errors : sum local = 7.67486e-10, global = 1.71853e-12, cumulative = -2.58359e-09
DICPCG:  Solving for p, Initial residual = 0.00626364, Final residual = 9.2159e-07, No Iterations 242
time step continuity errors : sum local = 8.26823e-10, global = -1.03435e-11, cumulative = -2.59394e-09
ExecutionTime = 0.47 s  ClockTime = 0 s

Time = 0.0006

Courant Number mean: 0.24093 max: 1.1928
smoothSolver:  Solving for Ux, Initial residual = 0.00128173, Final residual = 3.34652e-06, No Iterations 2
smoothSolver:  Solving for Uy, Initial residual = 0.000980154, Final residual = 3.84464e-06, No Iterations 2
DICPCG:  Solving for p, Initial residual = 0.0279638, Final residual = 9.15111e-07, No Iterations 287
time step continuity errors : sum local = 8.18896e-10, global = -3.46927e-12, cumulative = -2.59741e-09
DICPCG:  Solving for p, Initial residual = 0.00449441, Final residual = 8.73368e-07, No Iterations 284
time step continuity errors : sum local = 7.75574e-10, global = -3.68838e-12, cumulative = -2.60109e-09
ExecutionTime = 0.53 s  ClockTime = 1 s

Time = 0.0007

Courant Number mean: 0.240946 max: 1.17527
smoothSolver:  Solving for Ux, Initial residual = 0.00126477, Final residual = 2.74759e-06, No Iterations 2
smoothSolver:  Solving for Uy, Initial residual = 0.000973726, Final residual = 3.32736e-06, No Iterations 2
DICPCG:  Solving for p, Initial residual = 0.0276384, Final residual = 8.67026e-07, No Iterations 290
time step continuity errors : sum local = 7.64053e-10, global = 4.57769e-12, cumulative = -2.59652e-09
DICPCG:  Solving for p, Initial residual = 0.00414215, Final residual = 8.34512e-07, No Iterations 284
time step continuity errors : sum local = 7.23592e-10, global = -5.17524e-12, cumulative = -2.60169e-09
ExecutionTime = 0.6 s  ClockTime = 1 s

Time = 0.0008

Courant Number mean: 0.240963 max: 1.15529
smoothSolver:  Solving for Ux, Initial residual = 0.00124153, Final residual = 2.40394e-06, No Iterations 2
smoothSolver:  Solving for Uy, Initial residual = 0.000968562, Final residual = 3.00237e-06, No Iterations 2
DICPCG:  Solving for p, Initial residual = 0.024932, Final residual = 9.08492e-07, No Iterations 289
time step continuity errors : sum local = 7.82951e-10, global = -3.18844e-12, cumulative = -2.60488e-09
DICPCG:  Solving for p, Initial residual = 0.00400152, Final residual = 9.23669e-07, No Iterations 283
time step continuity errors : sum local = 7.85499e-10, global = -2.90227e-12, cumulative = -2.60778e-09
ExecutionTime = 0.67 s  ClockTime = 1 s

Time = 0.0009

Courant Number mean: 0.240985 max: 1.13378
smoothSolver:  Solving for Ux, Initial residual = 0.00122427, Final residual = 2.13617e-06, No Iterations 2
smoothSolver:  Solving for Uy, Initial residual = 0.000960956, Final residual = 2.77659e-06, No Iterations 2
DICPCG:  Solving for p, Initial residual = 0.0246709, Final residual = 9.5085e-07, No Iterations 288
time step continuity errors : sum local = 8.0313e-10, global = 3.63493e-13, cumulative = -2.60742e-09
DICPCG:  Solving for p, Initial residual = 0.00440312, Final residual = 9.10271e-07, No Iterations 283
time step continuity errors : sum local = 7.59533e-10, global = -1.61429e-12, cumulative = -2.60903e-09
ExecutionTime = 0.73 s  ClockTime = 1 s

Time = 0.001

Courant Number mean: 0.241009 max: 1.11157
smoothSolver:  Solving for Ux, Initial residual = 0.00121323, Final residual = 1.97252e-06, No Iterations 2
smoothSolver:  Solving for Uy, Initial residual = 0.000955282, Final residual = 2.50342e-06, No Iterations 2
DICPCG:  Solving for p, Initial residual = 0.0241644, Final residual = 9.396e-07, No Iterations 289
time step continuity errors : sum local = 7.82633e-10, global = 2.27318e-12, cumulative = -2.60676e-09
DICPCG:  Solving for p, Initial residual = 0.00443909, Final residual = 8.89429e-07, No Iterations 283
time step continuity errors : sum local = 7.36059e-10, global = -1.32479e-12, cumulative = -2.60809e-09
ExecutionTime = 0.79 s  ClockTime = 1 s

Time = 0.0011

Courant Number mean: 0.241036 max: 1.09001
smoothSolver:  Solving for Ux, Initial residual = 0.00120008, Final residual = 1.92449e-06, No Iterations 2
smoothSolver:  Solving for Uy, Initial residual = 0.000955216, Final residual = 2.23353e-06, No Iterations 2
DICPCG:  Solving for p, Initial residual = 0.0242159, Final residual = 8.31629e-07, No Iterations 290
time step continuity errors : sum local = 6.88987e-10, global = 3.67432e-12, cumulative = -2.60441e-09
DICPCG:  Solving for p, Initial residual = 0.00431959, Final residual = 9.21168e-07, No Iterations 283
time step continuity errors : sum local = 7.61131e-10, global = -2.56501e-14, cumulative = -2.60444e-09
ExecutionTime = 0.85 s  ClockTime = 1 s

Time = 0.0012

Courant Number mean: 0.241065 max: 1.06972
smoothSolver:  Solving for Ux, Initial residual = 0.00118945, Final residual = 1.89915e-06, No Iterations 2
smoothSolver:  Solving for Uy, Initial residual = 0.000957682, Final residual = 2.07447e-06, No Iterations 2
DICPCG:  Solving for p, Initial residual = 0.0239098, Final residual = 9.69987e-07, No Iterations 220
time step continuity errors : sum local = 8.03715e-10, global = -7.71424e-11, cumulative = -2.68158e-09
DICPCG:  Solving for p, Initial residual = 0.00415312, Final residual = 9.08475e-07, No Iterations 283
time step continuity errors : sum local = 7.53423e-10, global = -2.35821e-13, cumulative = -2.68182e-09
ExecutionTime = 0.9 s  ClockTime = 1 s

Time = 0.0013

Courant Number mean: 0.241101 max: 1.05106
smoothSolver:  Solving for Ux, Initial residual = 0.0011858, Final residual = 1.89261e-06, No Iterations 2
smoothSolver:  Solving for Uy, Initial residual = 0.00095681, Final residual = 1.9302e-06, No Iterations 2
DICPCG:  Solving for p, Initial residual = 0.0222135, Final residual = 9.22346e-07, No Iterations 290
time step continuity errors : sum local = 7.67135e-10, global = 5.28941e-12, cumulative = -2.67653e-09
DICPCG:  Solving for p, Initial residual = 0.00354226, Final residual = 9.2394e-07, No Iterations 280
time step continuity errors : sum local = 7.63348e-10, global = -1.622e-12, cumulative = -2.67815e-09
ExecutionTime = 0.94 s  ClockTime = 1 s

Time = 0.0014

Courant Number mean: 0.24114 max: 1.03498
smoothSolver:  Solving for Ux, Initial residual = 0.00117397, Final residual = 1.82802e-06, No Iterations 2
smoothSolver:  Solving for Uy, Initial residual = 0.000935762, Final residual = 1.77201e-06, No Iterations 2
DICPCG:  Solving for p, Initial residual = 0.0229994, Final residual = 8.69131e-07, No Iterations 291
time step continuity errors : sum local = 7.19848e-10, global = -6.33017e-14, cumulative = -2.67821e-09
DICPCG:  Solving for p, Initial residual = 0.00370132, Final residual = 9.78185e-07, No Iterations 283
time step continuity errors : sum local = 8.11524e-10, global = 8.16738e-16, cumulative = -2.67821e-09
ExecutionTime = 0.99 s  ClockTime = 1 s

Time = 0.0015

Courant Number mean: 0.241189 max: 1.02026
smoothSolver:  Solving for Ux, Initial residual = 0.00116958, Final residual = 1.82848e-06, No Iterations 2
smoothSolver:  Solving for Uy, Initial residual = 0.000931942, Final residual = 1.80759e-06, No Iterations 2
DICPCG:  Solving for p, Initial residual = 0.0205841, Final residual = 9.03902e-07, No Iterations 290
time step continuity errors : sum local = 7.50767e-10, global = 5.46576e-12, cumulative = -2.67274e-09
DICPCG:  Solving for p, Initial residual = 0.00312454, Final residual = 9.46187e-07, No Iterations 281
time step continuity errors : sum local = 7.82729e-10, global = 2.75814e-12, cumulative = -2.66999e-09
ExecutionTime = 1.04 s  ClockTime = 1 s

Time = 0.0016

Courant Number mean: 0.241239 max: 1.00735
smoothSolver:  Solving for Ux, Initial residual = 0.00115713, Final residual = 1.8251e-06, No Iterations 2
smoothSolver:  Solving for Uy, Initial residual = 0.000930652, Final residual = 1.79648e-06, No Iterations 2
DICPCG:  Solving for p, Initial residual = 0.0204182, Final residual = 9.54376e-07, No Iterations 282
time step continuity errors : sum local = 7.90512e-10, global = -3.13625e-12, cumulative = -2.67312e-09
DICPCG:  Solving for p, Initial residual = 0.0032254, Final residual = 9.71536e-07, No Iterations 281
time step continuity errors : sum local = 8.02825e-10, global = 2.45643e-12, cumulative = -2.67067e-09
ExecutionTime = 1.12 s  ClockTime = 1 s

Time = 0.0017

Courant Number mean: 0.241296 max: 0.99563
smoothSolver:  Solving for Ux, Initial residual = 0.00114803, Final residual = 1.83024e-06, No Iterations 2
smoothSolver:  Solving for Uy, Initial residual = 0.00092606, Final residual = 1.79684e-06, No Iterations 2
DICPCG:  Solving for p, Initial residual = 0.0195171, Final residual = 9.4089e-07, No Iterations 290
time step continuity errors : sum local = 7.79878e-10, global = 4.11028e-12, cumulative = -2.66656e-09
DICPCG:  Solving for p, Initial residual = 0.0030485, Final residual = 9.00947e-07, No Iterations 282
time step continuity errors : sum local = 7.46083e-10, global = 1.06543e-12, cumulative = -2.66549e-09
ExecutionTime = 1.19 s  ClockTime = 1 s

Time = 0.0018

Courant Number mean: 0.241355 max: 0.984722
smoothSolver:  Solving for Ux, Initial residual = 0.00113911, Final residual = 1.85261e-06, No Iterations 2
smoothSolver:  Solving for Uy, Initial residual = 0.000921288, Final residual = 1.84315e-06, No Iterations 2
DICPCG:  Solving for p, Initial residual = 0.0186872, Final residual = 9.60372e-07, No Iterations 288
time step continuity errors : sum local = 7.98256e-10, global = -4.62213e-13, cumulative = -2.66595e-09
DICPCG:  Solving for p, Initial residual = 0.00290822, Final residual = 9.68932e-07, No Iterations 281
time step continuity errors : sum local = 8.0564e-10, global = 1.76744e-12, cumulative = -2.66419e-09
ExecutionTime = 1.25 s  ClockTime = 1 s

Time = 0.0019

Courant Number mean: 0.241414 max: 0.982501
smoothSolver:  Solving for Ux, Initial residual = 0.00113271, Final residual = 1.8696e-06, No Iterations 2
smoothSolver:  Solving for Uy, Initial residual = 0.000917551, Final residual = 1.88022e-06, No Iterations 2
DICPCG:  Solving for p, Initial residual = 0.0180623, Final residual = 8.15506e-07, No Iterations 290
time step continuity errors : sum local = 6.80581e-10, global = 3.16672e-12, cumulative = -2.66102e-09
DICPCG:  Solving for p, Initial residual = 0.00287417, Final residual = 8.83839e-07, No Iterations 281
time step continuity errors : sum local = 7.37878e-10, global = 1.8335e-12, cumulative = -2.65918e-09
ExecutionTime = 1.3 s  ClockTime = 1 s

Time = 0.002

Courant Number mean: 0.241474 max: 0.986491
smoothSolver:  Solving for Ux, Initial residual = 0.0011262, Final residual = 1.88522e-06, No Iterations 2
smoothSolver:  Solving for Uy, Initial residual = 0.000909384, Final residual = 1.90442e-06, No Iterations 2
DICPCG:  Solving for p, Initial residual = 0.0183153, Final residual = 8.67239e-07, No Iterations 290
time step continuity errors : sum local = 7.26057e-10, global = 1.07033e-12, cumulative = -2.65811e-09
DICPCG:  Solving for p, Initial residual = 0.0029236, Final residual = 8.30225e-07, No Iterations 281
time step continuity errors : sum local = 6.95167e-10, global = 1.40794e-13, cumulative = -2.65797e-09
ExecutionTime = 1.36 s  ClockTime = 1 s

Time = 0.0021

Courant Number mean: 0.241535 max: 0.991515
smoothSolver:  Solving for Ux, Initial residual = 0.00112169, Final residual = 1.8997e-06, No Iterations 2
smoothSolver:  Solving for Uy, Initial residual = 0.000903658, Final residual = 1.93543e-06, No Iterations 2
DICPCG:  Solving for p, Initial residual = 0.0190041, Final residual = 9.33813e-07, No Iterations 294
time step continuity errors : sum local = 7.82528e-10, global = -4.26992e-13, cumulative = -2.6584e-09
DICPCG:  Solving for p, Initial residual = 0.00320603, Final residual = 8.9336e-07, No Iterations 283
time step continuity errors : sum local = 7.50162e-10, global = -6.75718e-13, cumulative = -2.65908e-09
ExecutionTime = 1.41 s  ClockTime = 2 s

Time = 0.0022

Courant Number mean: 0.241596 max: 0.998396
smoothSolver:  Solving for Ux, Initial residual = 0.00112101, Final residual = 1.89121e-06, No Iterations 2
smoothSolver:  Solving for Uy, Initial residual = 0.000902258, Final residual = 2.02648e-06, No Iterations 2
DICPCG:  Solving for p, Initial residual = 0.0181428, Final residual = 9.10038e-07, No Iterations 291
time step continuity errors : sum local = 7.64942e-10, global = 1.42716e-12, cumulative = -2.65765e-09
DICPCG:  Solving for p, Initial residual = 0.00311253, Final residual = 8.63494e-07, No Iterations 282
time step continuity errors : sum local = 7.25269e-10, global = 1.46121e-13, cumulative = -2.6575e-09
ExecutionTime = 1.45 s  ClockTime = 2 s

Time = 0.0023

Courant Number mean: 0.241661 max: 1.0062
smoothSolver:  Solving for Ux, Initial residual = 0.00111709, Final residual = 1.89377e-06, No Iterations 2
smoothSolver:  Solving for Uy, Initial residual = 0.000897805, Final residual = 2.09479e-06, No Iterations 2
DICPCG:  Solving for p, Initial residual = 0.0188264, Final residual = 9.36584e-07, No Iterations 216
time step continuity errors : sum local = 7.87201e-10, global = -3.45909e-11, cumulative = -2.69209e-09
DICPCG:  Solving for p, Initial residual = 0.00309422, Final residual = 9.1934e-07, No Iterations 281
time step continuity errors : sum local = 7.72226e-10, global = 1.54348e-12, cumulative = -2.69055e-09
ExecutionTime = 1.5 s  ClockTime = 2 s

Time = 0.0024

Courant Number mean: 0.241729 max: 1.01446
smoothSolver:  Solving for Ux, Initial residual = 0.00111589, Final residual = 1.90416e-06, No Iterations 2
smoothSolver:  Solving for Uy, Initial residual = 0.000898361, Final residual = 2.15286e-06, No Iterations 2
DICPCG:  Solving for p, Initial residual = 0.0218762, Final residual = 9.7633e-07, No Iterations 294
time step continuity errors : sum local = 8.20004e-10, global = -8.95234e-13, cumulative = -2.69145e-09
DICPCG:  Solving for p, Initial residual = 0.00347477, Final residual = 9.93899e-07, No Iterations 281
time step continuity errors : sum local = 8.34241e-10, global = 2.10374e-13, cumulative = -2.69124e-09
ExecutionTime = 1.56 s  ClockTime = 2 s

Time = 0.0025

Courant Number mean: 0.241798 max: 1.02317
smoothSolver:  Solving for Ux, Initial residual = 0.00111402, Final residual = 1.91334e-06, No Iterations 2
smoothSolver:  Solving for Uy, Initial residual = 0.000906512, Final residual = 2.20337e-06, No Iterations 2
DICPCG:  Solving for p, Initial residual = 0.0218658, Final residual = 9.9428e-07, No Iterations 292
time step continuity errors : sum local = 8.35733e-10, global = -1.51189e-12, cumulative = -2.69275e-09
DICPCG:  Solving for p, Initial residual = 0.0034734, Final residual = 9.99728e-07, No Iterations 282
time step continuity errors : sum local = 8.42004e-10, global = 3.41696e-13, cumulative = -2.69241e-09
ExecutionTime = 1.61 s  ClockTime = 2 s

Time = 0.0026

Courant Number mean: 0.24187 max: 1.03162
smoothSolver:  Solving for Ux, Initial residual = 0.00110994, Final residual = 1.92905e-06, No Iterations 2
smoothSolver:  Solving for Uy, Initial residual = 0.000921148, Final residual = 2.26363e-06, No Iterations 2
DICPCG:  Solving for p, Initial residual = 0.0207769, Final residual = 8.8463e-07, No Iterations 292
time step continuity errors : sum local = 7.48029e-10, global = 3.1367e-12, cumulative = -2.68927e-09
DICPCG:  Solving for p, Initial residual = 0.00321927, Final residual = 8.69743e-07, No Iterations 281
time step continuity errors : sum local = 7.35757e-10, global = -3.24988e-13, cumulative = -2.68959e-09
ExecutionTime = 1.67 s  ClockTime = 2 s

Time = 0.0027

Courant Number mean: 0.24194 max: 1.03722
smoothSolver:  Solving for Ux, Initial residual = 0.00110341, Final residual = 1.94439e-06, No Iterations 2
smoothSolver:  Solving for Uy, Initial residual = 0.000926495, Final residual = 2.20497e-06, No Iterations 2
DICPCG:  Solving for p, Initial residual = 0.0198245, Final residual = 9.01604e-07, No Iterations 291
time step continuity errors : sum local = 7.66323e-10, global = 2.01286e-12, cumulative = -2.68758e-09
DICPCG:  Solving for p, Initial residual = 0.00291093, Final residual = 9.20269e-07, No Iterations 280
time step continuity errors : sum local = 7.84339e-10, global = -5.06436e-13, cumulative = -2.68809e-09
ExecutionTime = 1.75 s  ClockTime = 2 s

Time = 0.0028

Courant Number mean: 0.24201 max: 1.03857
smoothSolver:  Solving for Ux, Initial residual = 0.00109824, Final residual = 1.96701e-06, No Iterations 2
smoothSolver:  Solving for Uy, Initial residual = 0.000931127, Final residual = 2.11487e-06, No Iterations 2
DICPCG:  Solving for p, Initial residual = 0.018455, Final residual = 9.44159e-07, No Iterations 290
time step continuity errors : sum local = 8.08221e-10, global = 8.49884e-13, cumulative = -2.68724e-09
DICPCG:  Solving for p, Initial residual = 0.00249478, Final residual = 8.60349e-07, No Iterations 279
time step continuity errors : sum local = 7.38348e-10, global = -1.1906e-12, cumulative = -2.68843e-09
ExecutionTime = 1.82 s  ClockTime = 2 s

Time = 0.0029

Courant Number mean: 0.242081 max: 1.03495
smoothSolver:  Solving for Ux, Initial residual = 0.00109483, Final residual = 2.00066e-06, No Iterations 2
smoothSolver:  Solving for Uy, Initial residual = 0.000933731, Final residual = 2.03629e-06, No Iterations 2
DICPCG:  Solving for p, Initial residual = 0.0168847, Final residual = 9.5341e-07, No Iterations 291
time step continuity errors : sum local = 8.21339e-10, global = 1.62521e-12, cumulative = -2.6868e-09
DICPCG:  Solving for p, Initial residual = 0.00210573, Final residual = 9.93177e-07, No Iterations 277
time step continuity errors : sum local = 8.5733e-10, global = 1.02162e-12, cumulative = -2.68578e-09
ExecutionTime = 1.87 s  ClockTime = 2 s

Time = 0.003

Courant Number mean: 0.24215 max: 1.02656
smoothSolver:  Solving for Ux, Initial residual = 0.00109265, Final residual = 2.02098e-06, No Iterations 2
smoothSolver:  Solving for Uy, Initial residual = 0.000934566, Final residual = 2.00977e-06, No Iterations 2
DICPCG:  Solving for p, Initial residual = 0.0162249, Final residual = 9.58455e-07, No Iterations 291
time step continuity errors : sum local = 8.2976e-10, global = 1.00945e-12, cumulative = -2.68477e-09
DICPCG:  Solving for p, Initial residual = 0.00189931, Final residual = 9.65923e-07, No Iterations 276
time step continuity errors : sum local = 8.37395e-10, global = 2.47907e-12, cumulative = -2.68229e-09
ExecutionTime = 1.92 s  ClockTime = 2 s

Time = 0.0031

Courant Number mean: 0.24222 max: 1.01437
smoothSolver:  Solving for Ux, Initial residual = 0.00109398, Final residual = 2.03369e-06, No Iterations 2
smoothSolver:  Solving for Uy, Initial residual = 0.000935545, Final residual = 1.97868e-06, No Iterations 2
DICPCG:  Solving for p, Initial residual = 0.0166642, Final residual = 9.80501e-07, No Iterations 284
time step continuity errors : sum local = 8.52127e-10, global = -2.40051e-12, cumulative = -2.68469e-09
DICPCG:  Solving for p, Initial residual = 0.00193801, Final residual = 9.21824e-07, No Iterations 277
time step continuity errors : sum local = 8.01617e-10, global = -3.18567e-13, cumulative = -2.68501e-09
ExecutionTime = 1.98 s  ClockTime = 2 s

Time = 0.0032

Courant Number mean: 0.242288 max: 1.00685
smoothSolver:  Solving for Ux, Initial residual = 0.00108992, Final residual = 2.033e-06, No Iterations 2
smoothSolver:  Solving for Uy, Initial residual = 0.000930333, Final residual = 1.96285e-06, No Iterations 2
DICPCG:  Solving for p, Initial residual = 0.0171484, Final residual = 9.02837e-07, No Iterations 291
time step continuity errors : sum local = 7.88237e-10, global = 1.86815e-12, cumulative = -2.68314e-09
DICPCG:  Solving for p, Initial residual = 0.00207305, Final residual = 9.57796e-07, No Iterations 277
time step continuity errors : sum local = 8.38305e-10, global = -9.19553e-13, cumulative = -2.68406e-09
ExecutionTime = 2.03 s  ClockTime = 2 s

Time = 0.0033

Courant Number mean: 0.242356 max: 1.01934
smoothSolver:  Solving for Ux, Initial residual = 0.00108615, Final residual = 2.0273e-06, No Iterations 2
smoothSolver:  Solving for Uy, Initial residual = 0.000930796, Final residual = 1.99686e-06, No Iterations 2
DICPCG:  Solving for p, Initial residual = 0.0183229, Final residual = 8.34802e-07, No Iterations 291
time step continuity errors : sum local = 7.33512e-10, global = 1.86717e-12, cumulative = -2.6822e-09
DICPCG:  Solving for p, Initial residual = 0.00218172, Final residual = 9.19503e-07, No Iterations 278
time step continuity errors : sum local = 8.10032e-10, global = -2.70736e-12, cumulative = -2.6849e-09
ExecutionTime = 2.08 s  ClockTime = 2 s

Time = 0.0034

Courant Number mean: 0.242423 max: 1.03023
smoothSolver:  Solving for Ux, Initial residual = 0.00107996, Final residual = 2.0312e-06, No Iterations 2
smoothSolver:  Solving for Uy, Initial residual = 0.000933923, Final residual = 2.07509e-06, No Iterations 2
DICPCG:  Solving for p, Initial residual = 0.0195998, Final residual = 9.4547e-07, No Iterations 284
time step continuity errors : sum local = 8.36718e-10, global = -7.94226e-13, cumulative = -2.6857e-09
DICPCG:  Solving for p, Initial residual = 0.00224315, Final residual = 9.46418e-07, No Iterations 277
time step continuity errors : sum local = 8.39395e-10, global = -5.34065e-13, cumulative = -2.68623e-09
ExecutionTime = 2.14 s  ClockTime = 2 s

Time = 0.0035

Courant Number mean: 0.242489 max: 1.03818
smoothSolver:  Solving for Ux, Initial residual = 0.00107683, Final residual = 2.03553e-06, No Iterations 2
smoothSolver:  Solving for Uy, Initial residual = 0.000935452, Final residual = 2.14515e-06, No Iterations 2
DICPCG:  Solving for p, Initial residual = 0.02038, Final residual = 8.86808e-07, No Iterations 240
time step continuity errors : sum local = 7.90978e-10, global = -1.52088e-10, cumulative = -2.83832e-09
DICPCG:  Solving for p, Initial residual = 0.00220965, Final residual = 9.41435e-07, No Iterations 276
time step continuity errors : sum local = 8.43867e-10, global = 3.0938e-12, cumulative = -2.83523e-09
ExecutionTime = 2.19 s  ClockTime = 2 s

Time = 0.0036

Courant Number mean: 0.242558 max: 1.04209
smoothSolver:  Solving for Ux, Initial residual = 0.00108203, Final residual = 2.05259e-06, No Iterations 2
smoothSolver:  Solving for Uy, Initial residual = 0.000939024, Final residual = 2.23238e-06, No Iterations 2
DICPCG:  Solving for p, Initial residual = 0.0191889, Final residual = 9.48441e-07, No Iterations 293
time step continuity errors : sum local = 8.54912e-10, global = -1.07012e-12, cumulative = -2.8363e-09
DICPCG:  Solving for p, Initial residual = 0.00212389, Final residual = 9.5408e-07, No Iterations 275
time step continuity errors : sum local = 8.65628e-10, global = 1.8994e-12, cumulative = -2.8344e-09
ExecutionTime = 2.24 s  ClockTime = 3 s

Time = 0.0037

Courant Number mean: 0.242631 max: 1.04117
smoothSolver:  Solving for Ux, Initial residual = 0.00108534, Final residual = 2.09323e-06, No Iterations 2
smoothSolver:  Solving for Uy, Initial residual = 0.00094478, Final residual = 2.33806e-06, No Iterations 2
DICPCG:  Solving for p, Initial residual = 0.0185342, Final residual = 9.76434e-07, No Iterations 292
time step continuity errors : sum local = 8.90547e-10, global = -1.00529e-12, cumulative = -2.8354e-09
DICPCG:  Solving for p, Initial residual = 0.00200428, Final residual = 9.32895e-07, No Iterations 273
time step continuity errors : sum local = 8.55825e-10, global = 6.76031e-13, cumulative = -2.83473e-09
ExecutionTime = 2.3 s  ClockTime = 3 s

Time = 0.0038

Courant Number mean: 0.242707 max: 1.03527
smoothSolver:  Solving for Ux, Initial residual = 0.00108243, Final residual = 2.13421e-06, No Iterations 2
smoothSolver:  Solving for Uy, Initial residual = 0.000949479, Final residual = 2.40381e-06, No Iterations 2
DICPCG:  Solving for p, Initial residual = 0.0174899, Final residual = 9.39686e-07, No Iterations 236
time step continuity errors : sum local = 8.66736e-10, global = 7.20146e-11, cumulative = -2.76271e-09
DICPCG:  Solving for p, Initial residual = 0.0019971, Final residual = 9.72867e-07, No Iterations 273
time step continuity errors : sum local = 9.01793e-10, global = 4.75486e-13, cumulative = -2.76224e-09
ExecutionTime = 2.36 s  ClockTime = 3 s

Time = 0.0039

Courant Number mean: 0.242781 max: 1.03823
smoothSolver:  Solving for Ux, Initial residual = 0.00107728, Final residual = 2.1569e-06, No Iterations 2
smoothSolver:  Solving for Uy, Initial residual = 0.000952346, Final residual = 2.44293e-06, No Iterations 2
DICPCG:  Solving for p, Initial residual = 0.0177939, Final residual = 9.21397e-07, No Iterations 290
time step continuity errors : sum local = 8.57125e-10, global = -2.4588e-12, cumulative = -2.76469e-09
DICPCG:  Solving for p, Initial residual = 0.00226701, Final residual = 9.31794e-07, No Iterations 268
time step continuity errors : sum local = 8.68904e-10, global = -4.89083e-12, cumulative = -2.76959e-09
ExecutionTime = 2.43 s  ClockTime = 3 s

Time = 0.004

Courant Number mean: 0.242859 max: 1.03782
smoothSolver:  Solving for Ux, Initial residual = 0.0010733, Final residual = 2.18533e-06, No Iterations 2
smoothSolver:  Solving for Uy, Initial residual = 0.000951032, Final residual = 2.49615e-06, No Iterations 2
DICPCG:  Solving for p, Initial residual = 0.019869, Final residual = 9.02022e-07, No Iterations 290
time step continuity errors : sum local = 8.43332e-10, global = 5.54503e-12, cumulative = -2.76404e-09
DICPCG:  Solving for p, Initial residual = 0.00248211, Final residual = 8.98467e-07, No Iterations 273
time step continuity errors : sum local = 8.37837e-10, global = 2.67775e-12, cumulative = -2.76136e-09
ExecutionTime = 2.49 s  ClockTime = 3 s

Time = 0.0041

Courant Number mean: 0.24294 max: 1.03349
smoothSolver:  Solving for Ux, Initial residual = 0.00106338, Final residual = 2.20077e-06, No Iterations 2
smoothSolver:  Solving for Uy, Initial residual = 0.00094591, Final residual = 2.49476e-06, No Iterations 2
DICPCG:  Solving for p, Initial residual = 0.0194853, Final residual = 8.1764e-07, No Iterations 290
time step continuity errors : sum local = 7.63682e-10, global = 5.53727e-12, cumulative = -2.75583e-09
DICPCG:  Solving for p, Initial residual = 0.00259436, Final residual = 8.32698e-07, No Iterations 273
time step continuity errors : sum local = 7.73887e-10, global = 3.4721e-12, cumulative = -2.75235e-09
ExecutionTime = 2.55 s  ClockTime = 3 s

Time = 0.0042

Courant Number mean: 0.24302 max: 1.0261
smoothSolver:  Solving for Ux, Initial residual = 0.00105357, Final residual = 2.21779e-06, No Iterations 2
smoothSolver:  Solving for Uy, Initial residual = 0.000938212, Final residual = 2.47504e-06, No Iterations 2
DICPCG:  Solving for p, Initial residual = 0.0190216, Final residual = 9.7391e-07, No Iterations 289
time step continuity errors : sum local = 9.06302e-10, global = 8.5112e-13, cumulative = -2.7515e-09
DICPCG:  Solving for p, Initial residual = 0.00278931, Final residual = 9.18587e-07, No Iterations 187
time step continuity errors : sum local = 8.53043e-10, global = -1.41691e-10, cumulative = -2.89319e-09
ExecutionTime = 2.59 s  ClockTime = 3 s

Time = 0.0043

Courant Number mean: 0.2431 max: 1.01667
smoothSolver:  Solving for Ux, Initial residual = 0.00104846, Final residual = 2.24617e-06, No Iterations 2
smoothSolver:  Solving for Uy, Initial residual = 0.000934694, Final residual = 2.48431e-06, No Iterations 2
DICPCG:  Solving for p, Initial residual = 0.0189719, Final residual = 9.41955e-07, No Iterations 288
time step continuity errors : sum local = 8.75445e-10, global = 9.31517e-13, cumulative = -2.89226e-09
DICPCG:  Solving for p, Initial residual = 0.00288839, Final residual = 9.86678e-07, No Iterations 164
time step continuity errors : sum local = 9.15059e-10, global = -5.19235e-11, cumulative = -2.94418e-09
ExecutionTime = 2.64 s  ClockTime = 3 s

Time = 0.0044

Courant Number mean: 0.243181 max: 1.00625
smoothSolver:  Solving for Ux, Initial residual = 0.00104214, Final residual = 2.26473e-06, No Iterations 2
smoothSolver:  Solving for Uy, Initial residual = 0.000931826, Final residual = 2.49418e-06, No Iterations 2
DICPCG:  Solving for p, Initial residual = 0.0198331, Final residual = 8.31471e-07, No Iterations 290
time step continuity errors : sum local = 7.72648e-10, global = 6.95915e-13, cumulative = -2.94349e-09
DICPCG:  Solving for p, Initial residual = 0.00293754, Final residual = 9.2703e-07, No Iterations 133
time step continuity errors : sum local = 8.61501e-10, global = 1.09819e-11, cumulative = -2.93251e-09
ExecutionTime = 2.67 s  ClockTime = 3 s

Time = 0.0045

Courant Number mean: 0.243264 max: 0.999091
smoothSolver:  Solving for Ux, Initial residual = 0.00103559, Final residual = 2.27827e-06, No Iterations 2
smoothSolver:  Solving for Uy, Initial residual = 0.000933855, Final residual = 2.50448e-06, No Iterations 2
DICPCG:  Solving for p, Initial residual = 0.0188229, Final residual = 8.4064e-07, No Iterations 290
time step continuity errors : sum local = 7.82354e-10, global = 4.25611e-12, cumulative = -2.92825e-09
DICPCG:  Solving for p, Initial residual = 0.00279677, Final residual = 9.78573e-07, No Iterations 128
time step continuity errors : sum local = 9.0771e-10, global = 9.06709e-11, cumulative = -2.83758e-09
ExecutionTime = 2.71 s  ClockTime = 3 s

Time = 0.0046

Courant Number mean: 0.243347 max: 0.998975
smoothSolver:  Solving for Ux, Initial residual = 0.00102792, Final residual = 2.29443e-06, No Iterations 2
smoothSolver:  Solving for Uy, Initial residual = 0.00093202, Final residual = 2.47916e-06, No Iterations 2
DICPCG:  Solving for p, Initial residual = 0.0189566, Final residual = 9.10773e-07, No Iterations 289
time step continuity errors : sum local = 8.45219e-10, global = -4.15654e-12, cumulative = -2.84174e-09
DICPCG:  Solving for p, Initial residual = 0.00282312, Final residual = 9.34741e-07, No Iterations 133
time step continuity errors : sum local = 8.6686e-10, global = 9.96118e-11, cumulative = -2.74212e-09
ExecutionTime = 2.76 s  ClockTime = 3 s

Time = 0.0047

Courant Number mean: 0.24343 max: 0.997971
smoothSolver:  Solving for Ux, Initial residual = 0.00102444, Final residual = 2.31264e-06, No Iterations 2
smoothSolver:  Solving for Uy, Initial residual = 0.000929979, Final residual = 2.4978e-06, No Iterations 2
DICPCG:  Solving for p, Initial residual = 0.0196026, Final residual = 7.63672e-07, No Iterations 281
time step continuity errors : sum local = 7.08746e-10, global = 1.57812e-12, cumulative = -2.74055e-09
DICPCG:  Solving for p, Initial residual = 0.00289218, Final residual = 9.97558e-07, No Iterations 151
time step continuity errors : sum local = 9.24325e-10, global = 1.26206e-10, cumulative = -2.61434e-09
ExecutionTime = 2.8 s  ClockTime = 3 s

Time = 0.0048

Courant Number mean: 0.243513 max: 0.996384
smoothSolver:  Solving for Ux, Initial residual = 0.00101902, Final residual = 2.32641e-06, No Iterations 2
smoothSolver:  Solving for Uy, Initial residual = 0.000927498, Final residual = 2.50769e-06, No Iterations 2
DICPCG:  Solving for p, Initial residual = 0.019972, Final residual = 9.66726e-07, No Iterations 289
time step continuity errors : sum local = 8.96671e-10, global = -2.37715e-13, cumulative = -2.61458e-09
DICPCG:  Solving for p, Initial residual = 0.00290736, Final residual = 9.52305e-07, No Iterations 272
time step continuity errors : sum local = 8.81657e-10, global = 4.36597e-12, cumulative = -2.61021e-09
ExecutionTime = 2.86 s  ClockTime = 3 s

Time = 0.0049

Courant Number mean: 0.243594 max: 0.994519
smoothSolver:  Solving for Ux, Initial residual = 0.0010126, Final residual = 2.33326e-06, No Iterations 2
smoothSolver:  Solving for Uy, Initial residual = 0.00092119, Final residual = 2.51335e-06, No Iterations 2
DICPCG:  Solving for p, Initial residual = 0.019727, Final residual = 9.27741e-07, No Iterations 290
time step continuity errors : sum local = 8.59121e-10, global = -1.17423e-12, cumulative = -2.61139e-09
DICPCG:  Solving for p, Initial residual = 0.00289104, Final residual = 9.63879e-07, No Iterations 236
time step continuity errors : sum local = 8.91429e-10, global = 4.57275e-11, cumulative = -2.56566e-09
ExecutionTime = 2.91 s  ClockTime = 3 s

Time = 0.005

Courant Number mean: 0.243675 max: 0.99254
smoothSolver:  Solving for Ux, Initial residual = 0.00101065, Final residual = 2.34099e-06, No Iterations 2
smoothSolver:  Solving for Uy, Initial residual = 0.000922916, Final residual = 2.5401e-06, No Iterations 2
DICPCG:  Solving for p, Initial residual = 0.0197118, Final residual = 8.26336e-07, No Iterations 290
time step continuity errors : sum local = 7.64347e-10, global = -1.47545e-12, cumulative = -2.56713e-09
DICPCG:  Solving for p, Initial residual = 0.00285732, Final residual = 9.95559e-07, No Iterations 272
time step continuity errors : sum local = 9.19472e-10, global = 4.8209e-12, cumulative = -2.56231e-09
ExecutionTime = 2.97 s  ClockTime = 3 s

Time = 0.0051

Courant Number mean: 0.243757 max: 0.990453
smoothSolver:  Solving for Ux, Initial residual = 0.00100846, Final residual = 2.3481e-06, No Iterations 2
smoothSolver:  Solving for Uy, Initial residual = 0.000924354, Final residual = 2.57454e-06, No Iterations 2
DICPCG:  Solving for p, Initial residual = 0.0197178, Final residual = 9.9384e-07, No Iterations 288
time step continuity errors : sum local = 9.18048e-10, global = -7.42793e-13, cumulative = -2.56306e-09
DICPCG:  Solving for p, Initial residual = 0.00280167, Final residual = 9.04384e-07, No Iterations 271
time step continuity errors : sum local = 8.32902e-10, global = 6.29905e-12, cumulative = -2.55676e-09
ExecutionTime = 3.02 s  ClockTime = 3 s

Time = 0.0052

Courant Number mean: 0.243836 max: 0.988187
smoothSolver:  Solving for Ux, Initial residual = 0.00100377, Final residual = 2.34274e-06, No Iterations 2
smoothSolver:  Solving for Uy, Initial residual = 0.000923234, Final residual = 2.59224e-06, No Iterations 2
DICPCG:  Solving for p, Initial residual = 0.0192074, Final residual = 9.15603e-07, No Iterations 288
time step continuity errors : sum local = 8.43227e-10, global = -1.31622e-12, cumulative = -2.55807e-09
DICPCG:  Solving for p, Initial residual = 0.00275105, Final residual = 9.85469e-07, No Iterations 268
time step continuity errors : sum local = 9.05155e-10, global = -1.55913e-13, cumulative = -2.55823e-09
ExecutionTime = 3.09 s  ClockTime = 3 s

Time = 0.0053

Courant Number mean: 0.243913 max: 0.985633
smoothSolver:  Solving for Ux, Initial residual = 0.000998122, Final residual = 2.33985e-06, No Iterations 2
smoothSolver:  Solving for Uy, Initial residual = 0.000921974, Final residual = 2.61628e-06, No Iterations 2
DICPCG:  Solving for p, Initial residual = 0.0188494, Final residual = 9.74943e-07, No Iterations 287
time step continuity errors : sum local = 8.95709e-10, global = -3.3932e-12, cumulative = -2.56162e-09
DICPCG:  Solving for p, Initial residual = 0.00268182, Final residual = 9.28253e-07, No Iterations 271
time step continuity errors : sum local = 8.5096e-10, global = 1.55801e-12, cumulative = -2.56006e-09
ExecutionTime = 3.17 s  ClockTime = 4 s

Time = 0.0054

Courant Number mean: 0.243988 max: 0.982696
smoothSolver:  Solving for Ux, Initial residual = 0.000993949, Final residual = 2.34467e-06, No Iterations 2
smoothSolver:  Solving for Uy, Initial residual = 0.000920787, Final residual = 2.65415e-06, No Iterations 2
DICPCG:  Solving for p, Initial residual = 0.0187962, Final residual = 9.28702e-07, No Iterations 288
time step continuity errors : sum local = 8.52086e-10, global = 1.26938e-13, cumulative = -2.55994e-09
DICPCG:  Solving for p, Initial residual = 0.00269451, Final residual = 9.23288e-07, No Iterations 274
time step continuity errors : sum local = 8.45855e-10, global = -1.41296e-12, cumulative = -2.56135e-09
ExecutionTime = 3.22 s  ClockTime = 4 s

Time = 0.0055

Courant Number mean: 0.244061 max: 0.979331
smoothSolver:  Solving for Ux, Initial residual = 0.000987697, Final residual = 2.35128e-06, No Iterations 2
smoothSolver:  Solving for Uy, Initial residual = 0.000916748, Final residual = 2.69176e-06, No Iterations 2
DICPCG:  Solving for p, Initial residual = 0.0186999, Final residual = 8.30069e-07, No Iterations 287
time step continuity errors : sum local = 7.61427e-10, global = -3.29614e-12, cumulative = -2.56465e-09
DICPCG:  Solving for p, Initial residual = 0.00255845, Final residual = 9.81562e-07, No Iterations 273
time step continuity errors : sum local = 9.00322e-10, global = -1.07078e-12, cumulative = -2.56572e-09
ExecutionTime = 3.29 s  ClockTime = 4 s

Time = 0.0056

Courant Number mean: 0.244133 max: 0.975618
smoothSolver:  Solving for Ux, Initial residual = 0.00098172, Final residual = 2.34193e-06, No Iterations 2
smoothSolver:  Solving for Uy, Initial residual = 0.000915644, Final residual = 2.72707e-06, No Iterations 2
DICPCG:  Solving for p, Initial residual = 0.0194848, Final residual = 9.57021e-07, No Iterations 289
time step continuity errors : sum local = 8.79477e-10, global = 1.75744e-12, cumulative = -2.56396e-09
DICPCG:  Solving for p, Initial residual = 0.00262114, Final residual = 9.2041e-07, No Iterations 273
time step continuity errors : sum local = 8.44379e-10, global = -5.80943e-13, cumulative = -2.56454e-09
ExecutionTime = 3.36 s  ClockTime = 4 s

Time = 0.0057

Courant Number mean: 0.244203 max: 0.971293
smoothSolver:  Solving for Ux, Initial residual = 0.000976384, Final residual = 2.33886e-06, No Iterations 2
smoothSolver:  Solving for Uy, Initial residual = 0.000910324, Final residual = 2.76175e-06, No Iterations 2
DICPCG:  Solving for p, Initial residual = 0.0199714, Final residual = 8.3769e-07, No Iterations 289
time step continuity errors : sum local = 7.7106e-10, global = 5.68526e-12, cumulative = -2.55886e-09
DICPCG:  Solving for p, Initial residual = 0.00274389, Final residual = 9.78303e-07, No Iterations 271
time step continuity errors : sum local = 8.98954e-10, global = 5.10431e-12, cumulative = -2.55375e-09
ExecutionTime = 3.44 s  ClockTime = 4 s

Time = 0.0058

Courant Number mean: 0.244271 max: 0.965836
smoothSolver:  Solving for Ux, Initial residual = 0.000970665, Final residual = 2.37057e-06, No Iterations 2
smoothSolver:  Solving for Uy, Initial residual = 0.000906914, Final residual = 2.82272e-06, No Iterations 2
DICPCG:  Solving for p, Initial residual = 0.0185106, Final residual = 9.62066e-07, No Iterations 236
time step continuity errors : sum local = 8.85775e-10, global = 1.73314e-10, cumulative = -2.38044e-09
DICPCG:  Solving for p, Initial residual = 0.00258509, Final residual = 9.08482e-07, No Iterations 274
time step continuity errors : sum local = 8.38267e-10, global = -1.8642e-12, cumulative = -2.3823e-09
ExecutionTime = 3.5 s  ClockTime = 4 s

Time = 0.0059

Courant Number mean: 0.244338 max: 0.961961
smoothSolver:  Solving for Ux, Initial residual = 0.000967667, Final residual = 2.37321e-06, No Iterations 2
smoothSolver:  Solving for Uy, Initial residual = 0.000909111, Final residual = 2.8495e-06, No Iterations 2
DICPCG:  Solving for p, Initial residual = 0.0181733, Final residual = 9.61426e-07, No Iterations 291
time step continuity errors : sum local = 8.88501e-10, global = 3.78157e-12, cumulative = -2.37852e-09
DICPCG:  Solving for p, Initial residual = 0.00252791, Final residual = 9.46196e-07, No Iterations 270
time step continuity errors : sum local = 8.77193e-10, global = 7.32412e-12, cumulative = -2.3712e-09
ExecutionTime = 3.56 s  ClockTime = 4 s

Time = 0.006

Courant Number mean: 0.244406 max: 0.96042
smoothSolver:  Solving for Ux, Initial residual = 0.000966318, Final residual = 2.35028e-06, No Iterations 2
smoothSolver:  Solving for Uy, Initial residual = 0.000914038, Final residual = 2.84987e-06, No Iterations 2
DICPCG:  Solving for p, Initial residual = 0.0185168, Final residual = 9.29081e-07, No Iterations 288
time step continuity errors : sum local = 8.63254e-10, global = 6.08417e-12, cumulative = -2.36511e-09
DICPCG:  Solving for p, Initial residual = 0.00260317, Final residual = 9.36596e-07, No Iterations 273
time step continuity errors : sum local = 8.7204e-10, global = -1.37671e-12, cumulative = -2.36649e-09
ExecutionTime = 3.62 s  ClockTime = 4 s

Time = 0.0061

Courant Number mean: 0.244473 max: 0.95827
smoothSolver:  Solving for Ux, Initial residual = 0.000965544, Final residual = 2.33615e-06, No Iterations 2
smoothSolver:  Solving for Uy, Initial residual = 0.000917304, Final residual = 2.85874e-06, No Iterations 2
DICPCG:  Solving for p, Initial residual = 0.0188936, Final residual = 9.28407e-07, No Iterations 289
time step continuity errors : sum local = 8.66239e-10, global = 6.08835e-12, cumulative = -2.3604e-09
DICPCG:  Solving for p, Initial residual = 0.00263744, Final residual = 9.64817e-07, No Iterations 274
time step continuity errors : sum local = 9.01961e-10, global = -1.29351e-12, cumulative = -2.36169e-09
ExecutionTime = 3.68 s  ClockTime = 4 s

Time = 0.0062

Courant Number mean: 0.24454 max: 0.955425
smoothSolver:  Solving for Ux, Initial residual = 0.000966908, Final residual = 2.33602e-06, No Iterations 2
smoothSolver:  Solving for Uy, Initial residual = 0.000918882, Final residual = 2.86438e-06, No Iterations 2
DICPCG:  Solving for p, Initial residual = 0.018966, Final residual = 8.50496e-07, No Iterations 290
time step continuity errors : sum local = 7.96469e-10, global = 7.66136e-13, cumulative = -2.36093e-09
DICPCG:  Solving for p, Initial residual = 0.00267653, Final residual = 9.70416e-07, No Iterations 275
time step continuity errors : sum local = 9.10909e-10, global = -2.43493e-12, cumulative = -2.36336e-09
ExecutionTime = 3.74 s  ClockTime = 4 s

Time = 0.0063

Courant Number mean: 0.244608 max: 0.952003
smoothSolver:  Solving for Ux, Initial residual = 0.000968877, Final residual = 2.34295e-06, No Iterations 2
smoothSolver:  Solving for Uy, Initial residual = 0.000922886, Final residual = 2.87828e-06, No Iterations 2
DICPCG:  Solving for p, Initial residual = 0.0189495, Final residual = 9.59802e-07, No Iterations 289
time step continuity errors : sum local = 9.0248e-10, global = 5.95529e-12, cumulative = -2.35741e-09
DICPCG:  Solving for p, Initial residual = 0.00259247, Final residual = 9.83479e-07, No Iterations 274
time step continuity errors : sum local = 9.25952e-10, global = -1.93233e-12, cumulative = -2.35934e-09
ExecutionTime = 3.8 s  ClockTime = 4 s

Time = 0.0064

Courant Number mean: 0.244677 max: 0.948074
smoothSolver:  Solving for Ux, Initial residual = 0.000966623, Final residual = 2.34381e-06, No Iterations 2
smoothSolver:  Solving for Uy, Initial residual = 0.000923746, Final residual = 2.89321e-06, No Iterations 2
DICPCG:  Solving for p, Initial residual = 0.0199268, Final residual = 9.35767e-07, No Iterations 287
time step continuity errors : sum local = 8.83469e-10, global = -1.70662e-12, cumulative = -2.36105e-09
DICPCG:  Solving for p, Initial residual = 0.00259913, Final residual = 9.7876e-07, No Iterations 275
time step continuity errors : sum local = 9.24822e-10, global = -1.84682e-12, cumulative = -2.36289e-09
ExecutionTime = 3.86 s  ClockTime = 4 s

Time = 0.0065

Courant Number mean: 0.244745 max: 0.943704
smoothSolver:  Solving for Ux, Initial residual = 0.000962115, Final residual = 2.33658e-06, No Iterations 2
smoothSolver:  Solving for Uy, Initial residual = 0.000919417, Final residual = 2.88939e-06, No Iterations 2
DICPCG:  Solving for p, Initial residual = 0.01858, Final residual = 8.86014e-07, No Iterations 289
time step continuity errors : sum local = 8.39758e-10, global = 3.29449e-12, cumulative = -2.3596e-09
DICPCG:  Solving for p, Initial residual = 0.00252919, Final residual = 9.9945e-07, No Iterations 275
time step continuity errors : sum local = 9.49196e-10, global = -1.67349e-12, cumulative = -2.36127e-09
ExecutionTime = 3.91 s  ClockTime = 4 s

Time = 0.0066

Courant Number mean: 0.244814 max: 0.938939
smoothSolver:  Solving for Ux, Initial residual = 0.000959741, Final residual = 2.33204e-06, No Iterations 2
smoothSolver:  Solving for Uy, Initial residual = 0.000915227, Final residual = 2.89604e-06, No Iterations 2
DICPCG:  Solving for p, Initial residual = 0.0184894, Final residual = 7.46598e-07, No Iterations 290
time step continuity errors : sum local = 7.10339e-10, global = -1.26296e-12, cumulative = -2.36254e-09
DICPCG:  Solving for p, Initial residual = 0.00247047, Final residual = 9.91092e-07, No Iterations 257
time step continuity errors : sum local = 9.43343e-10, global = -8.05637e-12, cumulative = -2.37059e-09
ExecutionTime = 3.97 s  ClockTime = 4 s

Time = 0.0067

Courant Number mean: 0.244883 max: 0.93382
smoothSolver:  Solving for Ux, Initial residual = 0.000956793, Final residual = 2.31804e-06, No Iterations 2
smoothSolver:  Solving for Uy, Initial residual = 0.000912705, Final residual = 2.87271e-06, No Iterations 2
DICPCG:  Solving for p, Initial residual = 0.0177837, Final residual = 9.2162e-07, No Iterations 288
time step continuity errors : sum local = 8.78582e-10, global = 4.37284e-12, cumulative = -2.36622e-09
DICPCG:  Solving for p, Initial residual = 0.00232173, Final residual = 8.75726e-07, No Iterations 274
time step continuity errors : sum local = 8.35149e-10, global = -1.84835e-12, cumulative = -2.36807e-09
ExecutionTime = 4.03 s  ClockTime = 5 s

Time = 0.0068

Courant Number mean: 0.24495 max: 0.928591
smoothSolver:  Solving for Ux, Initial residual = 0.000951218, Final residual = 2.2904e-06, No Iterations 2
smoothSolver:  Solving for Uy, Initial residual = 0.000909042, Final residual = 2.86326e-06, No Iterations 2
DICPCG:  Solving for p, Initial residual = 0.0177319, Final residual = 9.35655e-07, No Iterations 289
time step continuity errors : sum local = 8.9359e-10, global = 4.81118e-12, cumulative = -2.36326e-09
DICPCG:  Solving for p, Initial residual = 0.00228356, Final residual = 9.09011e-07, No Iterations 272
time step continuity errors : sum local = 8.69274e-10, global = 1.59471e-13, cumulative = -2.3631e-09
ExecutionTime = 4.09 s  ClockTime = 5 s

Time = 0.0069

Courant Number mean: 0.24502 max: 0.92693
smoothSolver:  Solving for Ux, Initial residual = 0.000948434, Final residual = 2.25973e-06, No Iterations 2
smoothSolver:  Solving for Uy, Initial residual = 0.00090728, Final residual = 2.85266e-06, No Iterations 2
DICPCG:  Solving for p, Initial residual = 0.0179525, Final residual = 9.38807e-07, No Iterations 288
time step continuity errors : sum local = 8.99268e-10, global = 6.67988e-13, cumulative = -2.36243e-09
DICPCG:  Solving for p, Initial residual = 0.00230801, Final residual = 9.57686e-07, No Iterations 274
time step continuity errors : sum local = 9.17888e-10, global = -2.22534e-12, cumulative = -2.36465e-09
ExecutionTime = 4.14 s  ClockTime = 5 s

Time = 0.007

Courant Number mean: 0.245091 max: 0.926383
smoothSolver:  Solving for Ux, Initial residual = 0.00094758, Final residual = 2.24772e-06, No Iterations 2
smoothSolver:  Solving for Uy, Initial residual = 0.000908521, Final residual = 2.85587e-06, No Iterations 2
DICPCG:  Solving for p, Initial residual = 0.0176439, Final residual = 8.18655e-07, No Iterations 289
time step continuity errors : sum local = 7.85629e-10, global = -2.2687e-12, cumulative = -2.36692e-09
DICPCG:  Solving for p, Initial residual = 0.00227012, Final residual = 9.26965e-07, No Iterations 274
time step continuity errors : sum local = 8.88458e-10, global = -1.33988e-12, cumulative = -2.36826e-09
ExecutionTime = 4.2 s  ClockTime = 5 s

Time = 0.0071

Courant Number mean: 0.245161 max: 0.925786
smoothSolver:  Solving for Ux, Initial residual = 0.000946552, Final residual = 2.23908e-06, No Iterations 2
smoothSolver:  Solving for Uy, Initial residual = 0.000907728, Final residual = 2.82202e-06, No Iterations 2
DICPCG:  Solving for p, Initial residual = 0.0168828, Final residual = 8.7908e-07, No Iterations 289
time step continuity errors : sum local = 8.43195e-10, global = 2.44192e-12, cumulative = -2.36582e-09
DICPCG:  Solving for p, Initial residual = 0.00224604, Final residual = 9.40714e-07, No Iterations 270
time step continuity errors : sum local = 9.03644e-10, global = 5.75135e-12, cumulative = -2.36007e-09
ExecutionTime = 4.25 s  ClockTime = 5 s

Time = 0.0072

Courant Number mean: 0.245231 max: 0.924447
smoothSolver:  Solving for Ux, Initial residual = 0.000945091, Final residual = 2.20485e-06, No Iterations 2
smoothSolver:  Solving for Uy, Initial residual = 0.000909188, Final residual = 2.77208e-06, No Iterations 2
DICPCG:  Solving for p, Initial residual = 0.016757, Final residual = 9.99679e-07, No Iterations 289
time step continuity errors : sum local = 9.60514e-10, global = 3.57e-12, cumulative = -2.3565e-09
DICPCG:  Solving for p, Initial residual = 0.00225039, Final residual = 9.584e-07, No Iterations 270
time step continuity errors : sum local = 9.21357e-10, global = 6.05812e-12, cumulative = -2.35044e-09
ExecutionTime = 4.31 s  ClockTime = 5 s

Time = 0.0073

Courant Number mean: 0.2453 max: 0.922409
smoothSolver:  Solving for Ux, Initial residual = 0.000944483, Final residual = 2.16141e-06, No Iterations 2
smoothSolver:  Solving for Uy, Initial residual = 0.000908791, Final residual = 2.72464e-06, No Iterations 2
DICPCG:  Solving for p, Initial residual = 0.0168032, Final residual = 9.28238e-07, No Iterations 289
time step continuity errors : sum local = 8.92174e-10, global = 4.34157e-12, cumulative = -2.3461e-09
DICPCG:  Solving for p, Initial residual = 0.00215003, Final residual = 9.8323e-07, No Iterations 269
time step continuity errors : sum local = 9.44689e-10, global = 5.28921e-12, cumulative = -2.34081e-09
ExecutionTime = 4.37 s  ClockTime = 5 s

Time = 0.0074

Courant Number mean: 0.24537 max: 0.919715
smoothSolver:  Solving for Ux, Initial residual = 0.000944642, Final residual = 2.11316e-06, No Iterations 2
smoothSolver:  Solving for Uy, Initial residual = 0.000908091, Final residual = 2.66316e-06, No Iterations 2
DICPCG:  Solving for p, Initial residual = 0.0171962, Final residual = 8.92286e-07, No Iterations 290
time step continuity errors : sum local = 8.57438e-10, global = -4.9925e-13, cumulative = -2.34131e-09
DICPCG:  Solving for p, Initial residual = 0.0021445, Final residual = 9.85002e-07, No Iterations 111
time step continuity errors : sum local = 9.46267e-10, global = 7.85458e-11, cumulative = -2.26276e-09
ExecutionTime = 4.41 s  ClockTime = 5 s

Time = 0.0075

Courant Number mean: 0.245441 max: 0.916434
smoothSolver:  Solving for Ux, Initial residual = 0.000942216, Final residual = 2.06561e-06, No Iterations 2
smoothSolver:  Solving for Uy, Initial residual = 0.000907952, Final residual = 2.59088e-06, No Iterations 2
DICPCG:  Solving for p, Initial residual = 0.0170203, Final residual = 9.5438e-07, No Iterations 290
time step continuity errors : sum local = 9.16919e-10, global = -3.90908e-13, cumulative = -2.26315e-09
DICPCG:  Solving for p, Initial residual = 0.002188, Final residual = 9.9862e-07, No Iterations 93
time step continuity errors : sum local = 9.59885e-10, global = 6.66943e-11, cumulative = -2.19646e-09
ExecutionTime = 4.45 s  ClockTime = 5 s

Time = 0.0076

Courant Number mean: 0.245512 max: 0.912629
smoothSolver:  Solving for Ux, Initial residual = 0.000941428, Final residual = 2.02368e-06, No Iterations 2
smoothSolver:  Solving for Uy, Initial residual = 0.000907485, Final residual = 2.49512e-06, No Iterations 2
DICPCG:  Solving for p, Initial residual = 0.0165417, Final residual = 9.53502e-07, No Iterations 289
time step continuity errors : sum local = 9.15577e-10, global = 3.99316e-12, cumulative = -2.19247e-09
DICPCG:  Solving for p, Initial residual = 0.00203329, Final residual = 9.26351e-07, No Iterations 66
time step continuity errors : sum local = 8.88179e-10, global = -4.4656e-11, cumulative = -2.23712e-09
ExecutionTime = 4.48 s  ClockTime = 5 s

Time = 0.0077

Courant Number mean: 0.245585 max: 0.908487
smoothSolver:  Solving for Ux, Initial residual = 0.000934781, Final residual = 1.96516e-06, No Iterations 2
smoothSolver:  Solving for Uy, Initial residual = 0.000906659, Final residual = 2.44151e-06, No Iterations 2
DICPCG:  Solving for p, Initial residual = 0.0173665, Final residual = 8.92422e-07, No Iterations 289
time step continuity errors : sum local = 8.54519e-10, global = -3.04781e-12, cumulative = -2.24017e-09
DICPCG:  Solving for p, Initial residual = 0.00202821, Final residual = 9.77214e-07, No Iterations 67
time step continuity errors : sum local = 9.33315e-10, global = -6.01559e-11, cumulative = -2.30033e-09
ExecutionTime = 4.52 s  ClockTime = 5 s

Time = 0.0078

Courant Number mean: 0.245661 max: 0.90412
smoothSolver:  Solving for Ux, Initial residual = 0.000925938, Final residual = 1.89265e-06, No Iterations 2
smoothSolver:  Solving for Uy, Initial residual = 0.000905019, Final residual = 2.3737e-06, No Iterations 2
DICPCG:  Solving for p, Initial residual = 0.0168488, Final residual = 9.93222e-07, No Iterations 290
time step continuity errors : sum local = 9.46856e-10, global = 1.40926e-12, cumulative = -2.29892e-09
DICPCG:  Solving for p, Initial residual = 0.00206226, Final residual = 9.74185e-07, No Iterations 83
time step continuity errors : sum local = 9.27761e-10, global = -1.18651e-10, cumulative = -2.41757e-09
ExecutionTime = 4.56 s  ClockTime = 5 s

Time = 0.0079

Courant Number mean: 0.245737 max: 0.899577
smoothSolver:  Solving for Ux, Initial residual = 0.000920712, Final residual = 1.83794e-06, No Iterations 2
smoothSolver:  Solving for Uy, Initial residual = 0.000903196, Final residual = 2.32602e-06, No Iterations 2
DICPCG:  Solving for p, Initial residual = 0.0169741, Final residual = 9.04181e-07, No Iterations 291
time step continuity errors : sum local = 8.58838e-10, global = 4.64285e-13, cumulative = -2.4171e-09
DICPCG:  Solving for p, Initial residual = 0.00221717, Final residual = 9.65975e-07, No Iterations 216
time step continuity errors : sum local = 9.16319e-10, global = -5.69336e-11, cumulative = -2.47404e-09
ExecutionTime = 4.6 s  ClockTime = 5 s

Time = 0.008

Courant Number mean: 0.245812 max: 0.894932
smoothSolver:  Solving for Ux, Initial residual = 0.000916389, Final residual = 1.80217e-06, No Iterations 2
smoothSolver:  Solving for Uy, Initial residual = 0.000900048, Final residual = 2.26917e-06, No Iterations 2
DICPCG:  Solving for p, Initial residual = 0.0166189, Final residual = 8.79106e-07, No Iterations 290
time step continuity errors : sum local = 8.31987e-10, global = 1.61867e-12, cumulative = -2.47242e-09
DICPCG:  Solving for p, Initial residual = 0.00221113, Final residual = 9.72439e-07, No Iterations 223
time step continuity errors : sum local = 9.178e-10, global = -1.25334e-11, cumulative = -2.48495e-09
ExecutionTime = 4.65 s  ClockTime = 5 s

Time = 0.0081

Courant Number mean: 0.245886 max: 0.890357
smoothSolver:  Solving for Ux, Initial residual = 0.000910281, Final residual = 1.75604e-06, No Iterations 2
smoothSolver:  Solving for Uy, Initial residual = 0.000896728, Final residual = 2.20248e-06, No Iterations 2
DICPCG:  Solving for p, Initial residual = 0.0166729, Final residual = 9.83886e-07, No Iterations 241
time step continuity errors : sum local = 9.26354e-10, global = 1.77656e-10, cumulative = -2.3073e-09
DICPCG:  Solving for p, Initial residual = 0.00219988, Final residual = 9.82285e-07, No Iterations 120
time step continuity errors : sum local = 9.22356e-10, global = -6.88889e-11, cumulative = -2.37619e-09
ExecutionTime = 4.68 s  ClockTime = 5 s

Time = 0.0082

Courant Number mean: 0.245959 max: 0.885999
smoothSolver:  Solving for Ux, Initial residual = 0.000904223, Final residual = 1.7073e-06, No Iterations 2
smoothSolver:  Solving for Uy, Initial residual = 0.000894869, Final residual = 2.14848e-06, No Iterations 2
DICPCG:  Solving for p, Initial residual = 0.0167506, Final residual = 9.46171e-07, No Iterations 290
time step continuity errors : sum local = 8.87114e-10, global = 5.30839e-13, cumulative = -2.37565e-09
DICPCG:  Solving for p, Initial residual = 0.00219593, Final residual = 9.06296e-07, No Iterations 272
time step continuity errors : sum local = 8.48236e-10, global = -5.87841e-12, cumulative = -2.38153e-09
ExecutionTime = 4.74 s  ClockTime = 5 s

Time = 0.0083

Courant Number mean: 0.246033 max: 0.885095
smoothSolver:  Solving for Ux, Initial residual = 0.000899011, Final residual = 1.65972e-06, No Iterations 2
smoothSolver:  Solving for Uy, Initial residual = 0.000891148, Final residual = 2.09224e-06, No Iterations 2
DICPCG:  Solving for p, Initial residual = 0.0163071, Final residual = 9.62033e-07, No Iterations 291
time step continuity errors : sum local = 8.99259e-10, global = 9.45651e-13, cumulative = -2.38059e-09
DICPCG:  Solving for p, Initial residual = 0.00214688, Final residual = 9.2658e-07, No Iterations 273
time step continuity errors : sum local = 8.65896e-10, global = -4.45665e-12, cumulative = -2.38504e-09
ExecutionTime = 4.8 s  ClockTime = 5 s

Time = 0.0084

Courant Number mean: 0.246108 max: 0.889322
smoothSolver:  Solving for Ux, Initial residual = 0.000894632, Final residual = 1.62046e-06, No Iterations 2
smoothSolver:  Solving for Uy, Initial residual = 0.000888704, Final residual = 2.03197e-06, No Iterations 2
DICPCG:  Solving for p, Initial residual = 0.0161615, Final residual = 9.60456e-07, No Iterations 290
time step continuity errors : sum local = 8.96118e-10, global = 1.0305e-12, cumulative = -2.38401e-09
DICPCG:  Solving for p, Initial residual = 0.00211686, Final residual = 9.60608e-07, No Iterations 273
time step continuity errors : sum local = 8.94902e-10, global = -5.11201e-12, cumulative = -2.38913e-09
ExecutionTime = 4.85 s  ClockTime = 5 s

Time = 0.0085

Courant Number mean: 0.246182 max: 0.893542
smoothSolver:  Solving for Ux, Initial residual = 0.000890265, Final residual = 1.57898e-06, No Iterations 2
smoothSolver:  Solving for Uy, Initial residual = 0.000883243, Final residual = 1.96012e-06, No Iterations 2
DICPCG:  Solving for p, Initial residual = 0.017086, Final residual = 8.42082e-07, No Iterations 293
time step continuity errors : sum local = 7.82372e-10, global = 1.37431e-12, cumulative = -2.38775e-09
DICPCG:  Solving for p, Initial residual = 0.00219563, Final residual = 8.87283e-07, No Iterations 276
time step continuity errors : sum local = 8.23873e-10, global = -1.16886e-12, cumulative = -2.38892e-09
ExecutionTime = 4.91 s  ClockTime = 6 s

Time = 0.0086

Courant Number mean: 0.246258 max: 0.897917
smoothSolver:  Solving for Ux, Initial residual = 0.000884687, Final residual = 1.55331e-06, No Iterations 2
smoothSolver:  Solving for Uy, Initial residual = 0.000879347, Final residual = 1.92725e-06, No Iterations 2
DICPCG:  Solving for p, Initial residual = 0.0181927, Final residual = 8.96037e-07, No Iterations 291
time step continuity errors : sum local = 8.30211e-10, global = -2.56258e-12, cumulative = -2.39148e-09
DICPCG:  Solving for p, Initial residual = 0.0023256, Final residual = 8.48478e-07, No Iterations 275
time step continuity errors : sum local = 7.84693e-10, global = -3.3585e-12, cumulative = -2.39484e-09
ExecutionTime = 4.97 s  ClockTime = 6 s

Time = 0.0087

Courant Number mean: 0.246335 max: 0.902184
smoothSolver:  Solving for Ux, Initial residual = 0.000877808, Final residual = 1.51144e-06, No Iterations 2
smoothSolver:  Solving for Uy, Initial residual = 0.000875984, Final residual = 1.87296e-06, No Iterations 2
DICPCG:  Solving for p, Initial residual = 0.0167096, Final residual = 9.83298e-07, No Iterations 236
time step continuity errors : sum local = 9.08292e-10, global = -8.73435e-11, cumulative = -2.48218e-09
DICPCG:  Solving for p, Initial residual = 0.00215058, Final residual = 8.61737e-07, No Iterations 274
time step continuity errors : sum local = 7.94746e-10, global = -3.09977e-12, cumulative = -2.48528e-09
ExecutionTime = 5.02 s  ClockTime = 6 s

Time = 0.0088

Courant Number mean: 0.246411 max: 0.906082
smoothSolver:  Solving for Ux, Initial residual = 0.000871815, Final residual = 1.48578e-06, No Iterations 2
smoothSolver:  Solving for Uy, Initial residual = 0.00087109, Final residual = 1.81007e-06, No Iterations 2
DICPCG:  Solving for p, Initial residual = 0.0170621, Final residual = 9.2006e-07, No Iterations 290
time step continuity errors : sum local = 8.47709e-10, global = 1.28815e-12, cumulative = -2.484e-09
DICPCG:  Solving for p, Initial residual = 0.00210259, Final residual = 8.63198e-07, No Iterations 274
time step continuity errors : sum local = 7.94531e-10, global = -2.39838e-12, cumulative = -2.48639e-09
ExecutionTime = 5.08 s  ClockTime = 6 s

Time = 0.0089

Courant Number mean: 0.246488 max: 0.909481
smoothSolver:  Solving for Ux, Initial residual = 0.000865913, Final residual = 1.45237e-06, No Iterations 2
smoothSolver:  Solving for Uy, Initial residual = 0.000865611, Final residual = 1.74193e-06, No Iterations 2
DICPCG:  Solving for p, Initial residual = 0.0167522, Final residual = 8.71653e-07, No Iterations 290
time step continuity errors : sum local = 8.01346e-10, global = -3.72685e-12, cumulative = -2.49012e-09
DICPCG:  Solving for p, Initial residual = 0.00208281, Final residual = 9.01717e-07, No Iterations 273
time step continuity errors : sum local = 8.26603e-10, global = -4.0018e-12, cumulative = -2.49412e-09
ExecutionTime = 5.13 s  ClockTime = 6 s

Time = 0.009

Courant Number mean: 0.246565 max: 0.912289
smoothSolver:  Solving for Ux, Initial residual = 0.000859479, Final residual = 1.41048e-06, No Iterations 2
smoothSolver:  Solving for Uy, Initial residual = 0.000854361, Final residual = 1.66138e-06, No Iterations 2
DICPCG:  Solving for p, Initial residual = 0.016155, Final residual = 9.63662e-07, No Iterations 290
time step continuity errors : sum local = 8.82625e-10, global = -6.26222e-12, cumulative = -2.50039e-09
DICPCG:  Solving for p, Initial residual = 0.00201704, Final residual = 9.45764e-07, No Iterations 272
time step continuity errors : sum local = 8.64076e-10, global = -6.18434e-12, cumulative = -2.50657e-09
ExecutionTime = 5.19 s  ClockTime = 6 s

Time = 0.0091

Courant Number mean: 0.24664 max: 0.914464
smoothSolver:  Solving for Ux, Initial residual = 0.000853365, Final residual = 1.36912e-06, No Iterations 2
smoothSolver:  Solving for Uy, Initial residual = 0.000843023, Final residual = 1.58108e-06, No Iterations 2
DICPCG:  Solving for p, Initial residual = 0.0150933, Final residual = 9.23632e-07, No Iterations 290
time step continuity errors : sum local = 8.43155e-10, global = -4.20491e-12, cumulative = -2.51077e-09
DICPCG:  Solving for p, Initial residual = 0.00196271, Final residual = 9.37857e-07, No Iterations 272
time step continuity errors : sum local = 8.54357e-10, global = -4.57096e-12, cumulative = -2.51535e-09
ExecutionTime = 5.24 s  ClockTime = 6 s

Time = 0.0092

Courant Number mean: 0.246713 max: 0.916034
smoothSolver:  Solving for Ux, Initial residual = 0.000846506, Final residual = 1.33125e-06, No Iterations 2
smoothSolver:  Solving for Uy, Initial residual = 0.000831981, Final residual = 1.50272e-06, No Iterations 2
DICPCG:  Solving for p, Initial residual = 0.0144815, Final residual = 8.52301e-07, No Iterations 290
time step continuity errors : sum local = 7.75563e-10, global = -1.68254e-12, cumulative = -2.51703e-09
DICPCG:  Solving for p, Initial residual = 0.00188501, Final residual = 9.22325e-07, No Iterations 272
time step continuity errors : sum local = 8.3768e-10, global = -3.82476e-12, cumulative = -2.52085e-09
ExecutionTime = 5.3 s  ClockTime = 6 s

Time = 0.0093

Courant Number mean: 0.246785 max: 0.917047
smoothSolver:  Solving for Ux, Initial residual = 0.000841056, Final residual = 1.29912e-06, No Iterations 2
smoothSolver:  Solving for Uy, Initial residual = 0.000821891, Final residual = 1.42965e-06, No Iterations 2
DICPCG:  Solving for p, Initial residual = 0.0141046, Final residual = 9.09926e-07, No Iterations 290
time step continuity errors : sum local = 8.25265e-10, global = 4.87516e-13, cumulative = -2.52037e-09
DICPCG:  Solving for p, Initial residual = 0.00178844, Final residual = 8.64622e-07, No Iterations 272
time step continuity errors : sum local = 7.83209e-10, global = -4.18201e-12, cumulative = -2.52455e-09
ExecutionTime = 5.37 s  ClockTime = 6 s

Time = 0.0094

Courant Number mean: 0.246856 max: 0.917634
smoothSolver:  Solving for Ux, Initial residual = 0.000835893, Final residual = 1.27774e-06, No Iterations 2
smoothSolver:  Solving for Uy, Initial residual = 0.000813205, Final residual = 1.37599e-06, No Iterations 2
DICPCG:  Solving for p, Initial residual = 0.0138408, Final residual = 9.79686e-07, No Iterations 290
time step continuity errors : sum local = 8.86169e-10, global = 4.23245e-13, cumulative = -2.52412e-09
DICPCG:  Solving for p, Initial residual = 0.00173531, Final residual = 8.58583e-07, No Iterations 272
time step continuity errors : sum local = 7.75823e-10, global = -3.4952e-12, cumulative = -2.52762e-09
ExecutionTime = 5.43 s  ClockTime = 6 s

Time = 0.0095

Courant Number mean: 0.246928 max: 0.917861
smoothSolver:  Solving for Ux, Initial residual = 0.000831765, Final residual = 1.27135e-06, No Iterations 2
smoothSolver:  Solving for Uy, Initial residual = 0.000805759, Final residual = 1.33382e-06, No Iterations 2
DICPCG:  Solving for p, Initial residual = 0.0138839, Final residual = 9.75077e-07, No Iterations 289
time step continuity errors : sum local = 8.79593e-10, global = 7.34464e-13, cumulative = -2.52688e-09
DICPCG:  Solving for p, Initial residual = 0.00173285, Final residual = 9.7813e-07, No Iterations 271
time step continuity errors : sum local = 8.81175e-10, global = -4.98115e-12, cumulative = -2.53187e-09
ExecutionTime = 5.48 s  ClockTime = 6 s

Time = 0.0096

Courant Number mean: 0.247002 max: 0.917665
smoothSolver:  Solving for Ux, Initial residual = 0.000827558, Final residual = 1.2656e-06, No Iterations 2
smoothSolver:  Solving for Uy, Initial residual = 0.000797503, Final residual = 1.3041e-06, No Iterations 2
DICPCG:  Solving for p, Initial residual = 0.0136262, Final residual = 8.4757e-07, No Iterations 290
time step continuity errors : sum local = 7.62415e-10, global = -1.04919e-12, cumulative = -2.53292e-09
DICPCG:  Solving for p, Initial residual = 0.00163799, Final residual = 9.32522e-07, No Iterations 271
time step continuity errors : sum local = 8.36716e-10, global = 3.75285e-12, cumulative = -2.52916e-09
ExecutionTime = 5.54 s  ClockTime = 6 s

Time = 0.0097

Courant Number mean: 0.247076 max: 0.917093
smoothSolver:  Solving for Ux, Initial residual = 0.000821691, Final residual = 1.26875e-06, No Iterations 2
smoothSolver:  Solving for Uy, Initial residual = 0.000785717, Final residual = 1.26601e-06, No Iterations 2
DICPCG:  Solving for p, Initial residual = 0.0139527, Final residual = 9.08834e-07, No Iterations 290
time step continuity errors : sum local = 8.13585e-10, global = 6.68267e-14, cumulative = -2.5291e-09
DICPCG:  Solving for p, Initial residual = 0.00166457, Final residual = 8.97056e-07, No Iterations 270
time step continuity errors : sum local = 8.01195e-10, global = -3.07608e-12, cumulative = -2.53217e-09
ExecutionTime = 5.59 s  ClockTime = 6 s

Time = 0.0098

Courant Number mean: 0.247149 max: 0.916361
smoothSolver:  Solving for Ux, Initial residual = 0.000816987, Final residual = 1.28682e-06, No Iterations 2
smoothSolver:  Solving for Uy, Initial residual = 0.000776007, Final residual = 1.26386e-06, No Iterations 2
DICPCG:  Solving for p, Initial residual = 0.0128511, Final residual = 8.52709e-07, No Iterations 290
time step continuity errors : sum local = 7.60261e-10, global = -1.02928e-12, cumulative = -2.5332e-09
DICPCG:  Solving for p, Initial residual = 0.00162655, Final residual = 9.41707e-07, No Iterations 67
time step continuity errors : sum local = 8.37032e-10, global = -8.66748e-11, cumulative = -2.61988e-09
ExecutionTime = 5.63 s  ClockTime = 6 s

Time = 0.0099

Courant Number mean: 0.247221 max: 0.915285
smoothSolver:  Solving for Ux, Initial residual = 0.000811061, Final residual = 1.29862e-06, No Iterations 2
smoothSolver:  Solving for Uy, Initial residual = 0.000766694, Final residual = 1.24581e-06, No Iterations 2
DICPCG:  Solving for p, Initial residual = 0.0124865, Final residual = 8.71173e-07, No Iterations 289
time step continuity errors : sum local = 7.73326e-10, global = -1.31423e-12, cumulative = -2.62119e-09
DICPCG:  Solving for p, Initial residual = 0.00163083, Final residual = 8.60995e-07, No Iterations 66
time step continuity errors : sum local = 7.6249e-10, global = -6.19106e-11, cumulative = -2.6831e-09
ExecutionTime = 5.66 s  ClockTime = 6 s

Time = 0.01

Courant Number mean: 0.247293 max: 0.913941
smoothSolver:  Solving for Ux, Initial residual = 0.000805319, Final residual = 1.30906e-06, No Iterations 2
smoothSolver:  Solving for Uy, Initial residual = 0.000757591, Final residual = 1.22855e-06, No Iterations 2
DICPCG:  Solving for p, Initial residual = 0.0123693, Final residual = 9.45082e-07, No Iterations 290
time step continuity errors : sum local = 8.35478e-10, global = 1.02384e-12, cumulative = -2.68208e-09
DICPCG:  Solving for p, Initial residual = 0.00161078, Final residual = 9.72558e-07, No Iterations 66
time step continuity errors : sum local = 8.58392e-10, global = -6.52755e-11, cumulative = -2.74735e-09
ExecutionTime = 5.7 s  ClockTime = 6 s

Time = 0.0101

Courant Number mean: 0.247365 max: 0.912357
smoothSolver:  Solving for Ux, Initial residual = 0.00080123, Final residual = 1.34366e-06, No Iterations 2
smoothSolver:  Solving for Uy, Initial residual = 0.000750831, Final residual = 1.23825e-06, No Iterations 2
DICPCG:  Solving for p, Initial residual = 0.0118453, Final residual = 8.83228e-07, No Iterations 289
time step continuity errors : sum local = 7.78689e-10, global = 4.68797e-14, cumulative = -2.74731e-09
DICPCG:  Solving for p, Initial residual = 0.00156225, Final residual = 9.10459e-07, No Iterations 91
time step continuity errors : sum local = 8.01213e-10, global = -1.01197e-11, cumulative = -2.75742e-09
ExecutionTime = 5.74 s  ClockTime = 7 s

Time = 0.0102

Courant Number mean: 0.247436 max: 0.910559
smoothSolver:  Solving for Ux, Initial residual = 0.000796592, Final residual = 1.37834e-06, No Iterations 2
smoothSolver:  Solving for Uy, Initial residual = 0.000743818, Final residual = 1.24402e-06, No Iterations 2
DICPCG:  Solving for p, Initial residual = 0.0116484, Final residual = 9.75525e-07, No Iterations 288
time step continuity errors : sum local = 8.57932e-10, global = 8.87996e-13, cumulative = -2.75654e-09
DICPCG:  Solving for p, Initial residual = 0.00152846, Final residual = 9.75217e-07, No Iterations 91
time step continuity errors : sum local = 8.56521e-10, global = 2.55355e-11, cumulative = -2.731e-09
ExecutionTime = 5.77 s  ClockTime = 7 s

Time = 0.0103

Courant Number mean: 0.247507 max: 0.908557
smoothSolver:  Solving for Ux, Initial residual = 0.000792136, Final residual = 1.41407e-06, No Iterations 2
smoothSolver:  Solving for Uy, Initial residual = 0.000738007, Final residual = 1.25476e-06, No Iterations 2
DICPCG:  Solving for p, Initial residual = 0.0115688, Final residual = 9.42959e-07, No Iterations 290
time step continuity errors : sum local = 8.27711e-10, global = -1.97435e-12, cumulative = -2.73298e-09
DICPCG:  Solving for p, Initial residual = 0.00152625, Final residual = 9.99792e-07, No Iterations 106
time step continuity errors : sum local = 8.75136e-10, global = 4.00453e-11, cumulative = -2.69293e-09
ExecutionTime = 5.82 s  ClockTime = 7 s

Time = 0.0104

Courant Number mean: 0.247579 max: 0.906347
smoothSolver:  Solving for Ux, Initial residual = 0.00078673, Final residual = 1.45042e-06, No Iterations 2
smoothSolver:  Solving for Uy, Initial residual = 0.000729798, Final residual = 1.27315e-06, No Iterations 2
DICPCG:  Solving for p, Initial residual = 0.0117311, Final residual = 8.74776e-07, No Iterations 289
time step continuity errors : sum local = 7.65443e-10, global = -2.3827e-12, cumulative = -2.69531e-09
DICPCG:  Solving for p, Initial residual = 0.00151404, Final residual = 9.01919e-07, No Iterations 112
time step continuity errors : sum local = 7.87339e-10, global = 8.80096e-11, cumulative = -2.6073e-09
ExecutionTime = 5.86 s  ClockTime = 7 s

Time = 0.0105

Courant Number mean: 0.24765 max: 0.90507
smoothSolver:  Solving for Ux, Initial residual = 0.000782642, Final residual = 1.49592e-06, No Iterations 2
smoothSolver:  Solving for Uy, Initial residual = 0.000722114, Final residual = 1.30146e-06, No Iterations 2
DICPCG:  Solving for p, Initial residual = 0.0117296, Final residual = 8.33846e-07, No Iterations 263
time step continuity errors : sum local = 7.27541e-10, global = 3.70236e-11, cumulative = -2.57028e-09
DICPCG:  Solving for p, Initial residual = 0.00147305, Final residual = 9.43523e-07, No Iterations 151
time step continuity errors : sum local = 8.21487e-10, global = 1.15311e-10, cumulative = -2.45497e-09
ExecutionTime = 5.91 s  ClockTime = 7 s

Time = 0.0106

Courant Number mean: 0.247721 max: 0.904458
smoothSolver:  Solving for Ux, Initial residual = 0.000779357, Final residual = 1.54393e-06, No Iterations 2
smoothSolver:  Solving for Uy, Initial residual = 0.000715973, Final residual = 1.34197e-06, No Iterations 2
DICPCG:  Solving for p, Initial residual = 0.0115836, Final residual = 9.6268e-07, No Iterations 289
time step continuity errors : sum local = 8.37502e-10, global = -1.20363e-12, cumulative = -2.45617e-09
DICPCG:  Solving for p, Initial residual = 0.00147514, Final residual = 9.66219e-07, No Iterations 152
time step continuity errors : sum local = 8.38164e-10, global = 1.3607e-10, cumulative = -2.3201e-09
ExecutionTime = 5.95 s  ClockTime = 7 s

Time = 0.0107

Courant Number mean: 0.247793 max: 0.903439
smoothSolver:  Solving for Ux, Initial residual = 0.000777281, Final residual = 1.59513e-06, No Iterations 2
smoothSolver:  Solving for Uy, Initial residual = 0.000712292, Final residual = 1.38454e-06, No Iterations 2
DICPCG:  Solving for p, Initial residual = 0.0111391, Final residual = 8.72888e-07, No Iterations 289
time step continuity errors : sum local = 7.57307e-10, global = -1.03543e-12, cumulative = -2.32114e-09
DICPCG:  Solving for p, Initial residual = 0.00145662, Final residual = 9.94731e-07, No Iterations 234
time step continuity errors : sum local = 8.62017e-10, global = 3.27046e-11, cumulative = -2.28843e-09
ExecutionTime = 6 s  ClockTime = 7 s

Time = 0.0108

Courant Number mean: 0.247864 max: 0.902073
smoothSolver:  Solving for Ux, Initial residual = 0.000774267, Final residual = 1.64604e-06, No Iterations 2
smoothSolver:  Solving for Uy, Initial residual = 0.00071123, Final residual = 1.45162e-06, No Iterations 2
DICPCG:  Solving for p, Initial residual = 0.0108861, Final residual = 8.67145e-07, No Iterations 289
time step continuity errors : sum local = 7.51762e-10, global = -1.99382e-12, cumulative = -2.29043e-09
DICPCG:  Solving for p, Initial residual = 0.00143814, Final residual = 9.05527e-07, No Iterations 267
[...]
DICPCG:  Solving for p, Initial residual = 0.00337596, Final residual = 9.37171e-07, No Iterations 82
time step continuity errors : sum local = 1.52189e-09, global = 1.54658e-10, cumulative = -5.86435e-09
ExecutionTime = 255.48 s  ClockTime = 302 s

Time = 0.4974

Courant Number mean: 0.296585 max: 1.01554
smoothSolver:  Solving for Ux, Initial residual = 0.00355704, Final residual = 1.40511e-06, No Iterations 3
smoothSolver:  Solving for Uy, Initial residual = 0.00391724, Final residual = 2.06875e-06, No Iterations 3
DICPCG:  Solving for p, Initial residual = 0.0276623, Final residual = 9.78665e-07, No Iterations 293
time step continuity errors : sum local = 1.5892e-09, global = 3.58129e-12, cumulative = -5.86077e-09
DICPCG:  Solving for p, Initial residual = 0.00336877, Final residual = 9.93629e-07, No Iterations 57
time step continuity errors : sum local = 1.61376e-09, global = -9.01007e-11, cumulative = -5.95087e-09
ExecutionTime = 255.52 s  ClockTime = 302 s

Time = 0.4975

Courant Number mean: 0.296608 max: 1.0213
smoothSolver:  Solving for Ux, Initial residual = 0.00356257, Final residual = 1.39109e-06, No Iterations 3
smoothSolver:  Solving for Uy, Initial residual = 0.00392339, Final residual = 2.03891e-06, No Iterations 3
DICPCG:  Solving for p, Initial residual = 0.0278084, Final residual = 9.85908e-07, No Iterations 186
time step continuity errors : sum local = 1.60268e-09, global = -2.79748e-11, cumulative = -5.97885e-09
DICPCG:  Solving for p, Initial residual = 0.00335308, Final residual = 9.82012e-07, No Iterations 52
time step continuity errors : sum local = 1.59779e-09, global = -4.37197e-11, cumulative = -6.02257e-09
ExecutionTime = 255.55 s  ClockTime = 302 s

Time = 0.4976

Courant Number mean: 0.296629 max: 1.02447
smoothSolver:  Solving for Ux, Initial residual = 0.00356523, Final residual = 1.37627e-06, No Iterations 3
smoothSolver:  Solving for Uy, Initial residual = 0.00393181, Final residual = 2.00469e-06, No Iterations 3
DICPCG:  Solving for p, Initial residual = 0.0278217, Final residual = 9.96128e-07, No Iterations 218
time step continuity errors : sum local = 1.62195e-09, global = -6.82362e-11, cumulative = -6.0908e-09
DICPCG:  Solving for p, Initial residual = 0.00341902, Final residual = 9.03335e-07, No Iterations 57
time step continuity errors : sum local = 1.47183e-09, global = -1.42841e-10, cumulative = -6.23364e-09
ExecutionTime = 255.58 s  ClockTime = 302 s

Time = 0.4977

Courant Number mean: 0.296644 max: 1.02916
smoothSolver:  Solving for Ux, Initial residual = 0.00356687, Final residual = 1.35856e-06, No Iterations 3
smoothSolver:  Solving for Uy, Initial residual = 0.00393309, Final residual = 1.97282e-06, No Iterations 3
DICPCG:  Solving for p, Initial residual = 0.0273598, Final residual = 8.48825e-07, No Iterations 293
time step continuity errors : sum local = 1.38435e-09, global = 2.18139e-12, cumulative = -6.23146e-09
DICPCG:  Solving for p, Initial residual = 0.00330199, Final residual = 8.93365e-07, No Iterations 58
time step continuity errors : sum local = 1.45871e-09, global = -3.50679e-11, cumulative = -6.26653e-09
ExecutionTime = 255.62 s  ClockTime = 302 s

Time = 0.4978

Courant Number mean: 0.296653 max: 1.03348
smoothSolver:  Solving for Ux, Initial residual = 0.00356338, Final residual = 1.33487e-06, No Iterations 3
smoothSolver:  Solving for Uy, Initial residual = 0.00393763, Final residual = 1.94223e-06, No Iterations 3
DICPCG:  Solving for p, Initial residual = 0.027961, Final residual = 9.20454e-07, No Iterations 293
time step continuity errors : sum local = 1.50376e-09, global = 5.50622e-13, cumulative = -6.26598e-09
DICPCG:  Solving for p, Initial residual = 0.00346453, Final residual = 9.82632e-07, No Iterations 81
time step continuity errors : sum local = 1.60484e-09, global = 7.80285e-11, cumulative = -6.18795e-09
ExecutionTime = 255.67 s  ClockTime = 302 s

Time = 0.4979

Courant Number mean: 0.296664 max: 1.03492
smoothSolver:  Solving for Ux, Initial residual = 0.00356599, Final residual = 1.32038e-06, No Iterations 3
smoothSolver:  Solving for Uy, Initial residual = 0.00393818, Final residual = 1.91225e-06, No Iterations 3
DICPCG:  Solving for p, Initial residual = 0.028512, Final residual = 8.06989e-07, No Iterations 286
time step continuity errors : sum local = 1.31908e-09, global = -1.03851e-11, cumulative = -6.19834e-09
DICPCG:  Solving for p, Initial residual = 0.00349333, Final residual = 9.82521e-07, No Iterations 79
time step continuity errors : sum local = 1.60837e-09, global = 1.70317e-10, cumulative = -6.02802e-09
ExecutionTime = 255.71 s  ClockTime = 302 s

Time = 0.498

Courant Number mean: 0.29667 max: 1.04
smoothSolver:  Solving for Ux, Initial residual = 0.00356901, Final residual = 1.29947e-06, No Iterations 3
smoothSolver:  Solving for Uy, Initial residual = 0.00393741, Final residual = 1.88589e-06, No Iterations 3
DICPCG:  Solving for p, Initial residual = 0.0285888, Final residual = 9.52147e-07, No Iterations 292
time step continuity errors : sum local = 1.5605e-09, global = 3.05284e-12, cumulative = -6.02497e-09
DICPCG:  Solving for p, Initial residual = 0.00342838, Final residual = 9.81259e-07, No Iterations 40
time step continuity errors : sum local = 1.60632e-09, global = -1.04933e-10, cumulative = -6.1299e-09
ExecutionTime = 255.75 s  ClockTime = 302 s

Time = 0.4981

Courant Number mean: 0.296676 max: 1.04272
smoothSolver:  Solving for Ux, Initial residual = 0.00356856, Final residual = 1.28102e-06, No Iterations 3
smoothSolver:  Solving for Uy, Initial residual = 0.00394338, Final residual = 1.85462e-06, No Iterations 3
DICPCG:  Solving for p, Initial residual = 0.0280239, Final residual = 8.23635e-07, No Iterations 294
time step continuity errors : sum local = 1.34779e-09, global = 2.33283e-12, cumulative = -6.12757e-09
DICPCG:  Solving for p, Initial residual = 0.00338782, Final residual = 9.62257e-07, No Iterations 94
time step continuity errors : sum local = 1.57124e-09, global = 1.30732e-10, cumulative = -5.99683e-09
ExecutionTime = 255.79 s  ClockTime = 302 s

Time = 0.4982

Courant Number mean: 0.29668 max: 1.04361
smoothSolver:  Solving for Ux, Initial residual = 0.00356898, Final residual = 1.26552e-06, No Iterations 3
smoothSolver:  Solving for Uy, Initial residual = 0.00394338, Final residual = 1.82778e-06, No Iterations 3
DICPCG:  Solving for p, Initial residual = 0.0271079, Final residual = 9.7715e-07, No Iterations 293
time step continuity errors : sum local = 1.59585e-09, global = 7.10738e-12, cumulative = -5.98973e-09
DICPCG:  Solving for p, Initial residual = 0.00337551, Final residual = 9.84462e-07, No Iterations 76
time step continuity errors : sum local = 1.60773e-09, global = 1.11137e-10, cumulative = -5.87859e-09
ExecutionTime = 255.84 s  ClockTime = 302 s

Time = 0.4983

Courant Number mean: 0.296683 max: 1.04762
smoothSolver:  Solving for Ux, Initial residual = 0.00356361, Final residual = 1.24397e-06, No Iterations 3
smoothSolver:  Solving for Uy, Initial residual = 0.00394411, Final residual = 1.7988e-06, No Iterations 3
DICPCG:  Solving for p, Initial residual = 0.0273875, Final residual = 9.82817e-07, No Iterations 293
time step continuity errors : sum local = 1.60525e-09, global = 6.07725e-12, cumulative = -5.87251e-09
DICPCG:  Solving for p, Initial residual = 0.00358022, Final residual = 9.94289e-07, No Iterations 91
time step continuity errors : sum local = 1.62244e-09, global = 1.18746e-10, cumulative = -5.75377e-09
ExecutionTime = 255.88 s  ClockTime = 303 s

Time = 0.4984

Courant Number mean: 0.296684 max: 1.04869
smoothSolver:  Solving for Ux, Initial residual = 0.00356627, Final residual = 1.23138e-06, No Iterations 3
smoothSolver:  Solving for Uy, Initial residual = 0.00394425, Final residual = 1.77127e-06, No Iterations 3
DICPCG:  Solving for p, Initial residual = 0.0279828, Final residual = 8.31697e-07, No Iterations 294
time step continuity errors : sum local = 1.3583e-09, global = 6.45347e-12, cumulative = -5.74731e-09
DICPCG:  Solving for p, Initial residual = 0.00349799, Final residual = 9.56976e-07, No Iterations 77
time step continuity errors : sum local = 1.5645e-09, global = 1.71328e-10, cumulative = -5.57598e-09
ExecutionTime = 255.92 s  ClockTime = 303 s

Time = 0.4985

Courant Number mean: 0.296674 max: 1.04964
smoothSolver:  Solving for Ux, Initial residual = 0.00356384, Final residual = 1.20975e-06, No Iterations 3
smoothSolver:  Solving for Uy, Initial residual = 0.00394374, Final residual = 1.74842e-06, No Iterations 3
DICPCG:  Solving for p, Initial residual = 0.028267, Final residual = 9.81898e-07, No Iterations 293
time step continuity errors : sum local = 1.60597e-09, global = 5.66202e-12, cumulative = -5.57032e-09
DICPCG:  Solving for p, Initial residual = 0.00348689, Final residual = 9.17405e-07, No Iterations 77
time step continuity errors : sum local = 1.50089e-09, global = 8.16147e-11, cumulative = -5.48871e-09
ExecutionTime = 255.97 s  ClockTime = 303 s

Time = 0.4986

Courant Number mean: 0.296661 max: 1.05213
smoothSolver:  Solving for Ux, Initial residual = 0.00356692, Final residual = 1.19362e-06, No Iterations 3
smoothSolver:  Solving for Uy, Initial residual = 0.00394025, Final residual = 1.72126e-06, No Iterations 3
DICPCG:  Solving for p, Initial residual = 0.0290637, Final residual = 8.69324e-07, No Iterations 293
time step continuity errors : sum local = 1.42266e-09, global = 3.38261e-12, cumulative = -5.48532e-09
DICPCG:  Solving for p, Initial residual = 0.00343953, Final residual = 8.65722e-07, No Iterations 87
time step continuity errors : sum local = 1.41497e-09, global = -1.50924e-11, cumulative = -5.50042e-09
ExecutionTime = 256.01 s  ClockTime = 303 s

Time = 0.4987

Courant Number mean: 0.296651 max: 1.05161
smoothSolver:  Solving for Ux, Initial residual = 0.00355998, Final residual = 1.17444e-06, No Iterations 3
smoothSolver:  Solving for Uy, Initial residual = 0.00393825, Final residual = 1.69978e-06, No Iterations 3
DICPCG:  Solving for p, Initial residual = 0.0273638, Final residual = 9.38489e-07, No Iterations 244
time step continuity errors : sum local = 1.53435e-09, global = 3.59325e-10, cumulative = -5.14109e-09
DICPCG:  Solving for p, Initial residual = 0.00345233, Final residual = 9.52815e-07, No Iterations 257
time step continuity errors : sum local = 1.55836e-09, global = -2.16147e-11, cumulative = -5.16271e-09
ExecutionTime = 256.05 s  ClockTime = 303 s

Time = 0.4988

Courant Number mean: 0.296643 max: 1.05248
smoothSolver:  Solving for Ux, Initial residual = 0.00355665, Final residual = 1.15829e-06, No Iterations 3
smoothSolver:  Solving for Uy, Initial residual = 0.00393173, Final residual = 1.67387e-06, No Iterations 3
DICPCG:  Solving for p, Initial residual = 0.0268241, Final residual = 9.38658e-07, No Iterations 244
time step continuity errors : sum local = 1.53474e-09, global = 3.1039e-10, cumulative = -4.85232e-09
DICPCG:  Solving for p, Initial residual = 0.00336868, Final residual = 9.5253e-07, No Iterations 217
time step continuity errors : sum local = 1.55704e-09, global = -6.29323e-11, cumulative = -4.91525e-09
ExecutionTime = 256.1 s  ClockTime = 303 s

Time = 0.4989

Courant Number mean: 0.296631 max: 1.0535
smoothSolver:  Solving for Ux, Initial residual = 0.00355553, Final residual = 1.14134e-06, No Iterations 3
smoothSolver:  Solving for Uy, Initial residual = 0.00392996, Final residual = 1.65267e-06, No Iterations 3
DICPCG:  Solving for p, Initial residual = 0.0262015, Final residual = 9.79414e-07, No Iterations 294
time step continuity errors : sum local = 1.6005e-09, global = 6.54845e-12, cumulative = -4.9087e-09
DICPCG:  Solving for p, Initial residual = 0.00330994, Final residual = 9.99156e-07, No Iterations 71
time step continuity errors : sum local = 1.63287e-09, global = 1.26535e-10, cumulative = -4.78216e-09
ExecutionTime = 256.14 s  ClockTime = 303 s

Time = 0.499

Courant Number mean: 0.29661 max: 1.0517
smoothSolver:  Solving for Ux, Initial residual = 0.00355302, Final residual = 1.12525e-06, No Iterations 3
smoothSolver:  Solving for Uy, Initial residual = 0.00392705, Final residual = 1.63111e-06, No Iterations 3
DICPCG:  Solving for p, Initial residual = 0.0270896, Final residual = 8.77325e-07, No Iterations 294
time step continuity errors : sum local = 1.43379e-09, global = 8.10341e-12, cumulative = -4.77406e-09
DICPCG:  Solving for p, Initial residual = 0.0034257, Final residual = 9.94807e-07, No Iterations 72
time step continuity errors : sum local = 1.625e-09, global = 4.90081e-11, cumulative = -4.72505e-09
ExecutionTime = 256.19 s  ClockTime = 303 s

Time = 0.4991

Courant Number mean: 0.296589 max: 1.05255
smoothSolver:  Solving for Ux, Initial residual = 0.00355289, Final residual = 1.11135e-06, No Iterations 3
smoothSolver:  Solving for Uy, Initial residual = 0.00392234, Final residual = 1.60911e-06, No Iterations 3
DICPCG:  Solving for p, Initial residual = 0.0281706, Final residual = 8.99683e-07, No Iterations 294
time step continuity errors : sum local = 1.47008e-09, global = 1.31367e-11, cumulative = -4.71192e-09
DICPCG:  Solving for p, Initial residual = 0.00342422, Final residual = 9.92694e-07, No Iterations 49
time step continuity errors : sum local = 1.621e-09, global = -1.90282e-11, cumulative = -4.73094e-09
ExecutionTime = 256.23 s  ClockTime = 303 s

Time = 0.4992

Courant Number mean: 0.296568 max: 1.05234
smoothSolver:  Solving for Ux, Initial residual = 0.00354533, Final residual = 1.09724e-06, No Iterations 3
smoothSolver:  Solving for Uy, Initial residual = 0.0039205, Final residual = 1.59135e-06, No Iterations 3
DICPCG:  Solving for p, Initial residual = 0.0271699, Final residual = 9.20844e-07, No Iterations 294
time step continuity errors : sum local = 1.50314e-09, global = 1.17602e-11, cumulative = -4.71918e-09
DICPCG:  Solving for p, Initial residual = 0.00345745, Final residual = 9.42891e-07, No Iterations 39
time step continuity errors : sum local = 1.53725e-09, global = 2.80655e-11, cumulative = -4.69112e-09
ExecutionTime = 256.26 s  ClockTime = 303 s

Time = 0.4993

Courant Number mean: 0.296546 max: 1.04953
smoothSolver:  Solving for Ux, Initial residual = 0.00354775, Final residual = 1.08559e-06, No Iterations 3
smoothSolver:  Solving for Uy, Initial residual = 0.00391345, Final residual = 1.57474e-06, No Iterations 3
DICPCG:  Solving for p, Initial residual = 0.0272337, Final residual = 8.98658e-07, No Iterations 292
time step continuity errors : sum local = 1.46381e-09, global = 8.32785e-12, cumulative = -4.68279e-09
DICPCG:  Solving for p, Initial residual = 0.00333802, Final residual = 9.8531e-07, No Iterations 38
time step continuity errors : sum local = 1.60263e-09, global = 4.28252e-11, cumulative = -4.63997e-09
ExecutionTime = 256.3 s  ClockTime = 303 s

Time = 0.4994

Courant Number mean: 0.296519 max: 1.05045
smoothSolver:  Solving for Ux, Initial residual = 0.00354361, Final residual = 1.07092e-06, No Iterations 3
smoothSolver:  Solving for Uy, Initial residual = 0.00390951, Final residual = 1.56188e-06, No Iterations 3
DICPCG:  Solving for p, Initial residual = 0.0267352, Final residual = 9.23315e-07, No Iterations 295
time step continuity errors : sum local = 1.50104e-09, global = 5.76998e-12, cumulative = -4.6342e-09
DICPCG:  Solving for p, Initial residual = 0.00330595, Final residual = 9.77238e-07, No Iterations 38
time step continuity errors : sum local = 1.58689e-09, global = 4.04556e-11, cumulative = -4.59374e-09
ExecutionTime = 256.34 s  ClockTime = 303 s

Time = 0.4995

Courant Number mean: 0.296492 max: 1.0493
smoothSolver:  Solving for Ux, Initial residual = 0.00353967, Final residual = 1.0572e-06, No Iterations 3
smoothSolver:  Solving for Uy, Initial residual = 0.00390557, Final residual = 1.54389e-06, No Iterations 3
DICPCG:  Solving for p, Initial residual = 0.0280465, Final residual = 9.69851e-07, No Iterations 294
time step continuity errors : sum local = 1.57361e-09, global = 1.34358e-11, cumulative = -4.5803e-09
DICPCG:  Solving for p, Initial residual = 0.0034925, Final residual = 9.49198e-07, No Iterations 39
time step continuity errors : sum local = 1.538e-09, global = 7.42581e-11, cumulative = -4.50605e-09
ExecutionTime = 256.38 s  ClockTime = 303 s

Time = 0.4996

Courant Number mean: 0.296469 max: 1.04666
smoothSolver:  Solving for Ux, Initial residual = 0.00353595, Final residual = 1.04368e-06, No Iterations 3
smoothSolver:  Solving for Uy, Initial residual = 0.00390144, Final residual = 1.52584e-06, No Iterations 3
DICPCG:  Solving for p, Initial residual = 0.0281516, Final residual = 9.48704e-07, No Iterations 295
time step continuity errors : sum local = 1.53502e-09, global = 5.83206e-12, cumulative = -4.50021e-09
DICPCG:  Solving for p, Initial residual = 0.00343981, Final residual = 9.65999e-07, No Iterations 38
time step continuity errors : sum local = 1.55823e-09, global = 3.62043e-11, cumulative = -4.46401e-09
ExecutionTime = 256.42 s  ClockTime = 303 s

Time = 0.4997

Courant Number mean: 0.296444 max: 1.04706
smoothSolver:  Solving for Ux, Initial residual = 0.0035322, Final residual = 1.03157e-06, No Iterations 3
smoothSolver:  Solving for Uy, Initial residual = 0.00389854, Final residual = 1.51185e-06, No Iterations 3
DICPCG:  Solving for p, Initial residual = 0.0272814, Final residual = 9.18345e-07, No Iterations 295
time step continuity errors : sum local = 1.47908e-09, global = 6.35707e-12, cumulative = -4.45765e-09
DICPCG:  Solving for p, Initial residual = 0.00336665, Final residual = 9.95008e-07, No Iterations 48
time step continuity errors : sum local = 1.60132e-09, global = -2.12243e-12, cumulative = -4.45978e-09
ExecutionTime = 256.46 s  ClockTime = 303 s

Time = 0.4998

Courant Number mean: 0.296415 max: 1.04532
smoothSolver:  Solving for Ux, Initial residual = 0.00352961, Final residual = 9.96324e-06, No Iterations 2
smoothSolver:  Solving for Uy, Initial residual = 0.00389295, Final residual = 1.49715e-06, No Iterations 3
DICPCG:  Solving for p, Initial residual = 0.0270984, Final residual = 9.05538e-07, No Iterations 295
time step continuity errors : sum local = 1.45514e-09, global = 5.26679e-12, cumulative = -4.45451e-09
DICPCG:  Solving for p, Initial residual = 0.00328506, Final residual = 9.6608e-07, No Iterations 68
time step continuity errors : sum local = 1.55064e-09, global = -3.77542e-11, cumulative = -4.49226e-09
ExecutionTime = 256.5 s  ClockTime = 303 s

Time = 0.4999

Courant Number mean: 0.296385 max: 1.04337
smoothSolver:  Solving for Ux, Initial residual = 0.00352664, Final residual = 9.90861e-06, No Iterations 2
smoothSolver:  Solving for Uy, Initial residual = 0.00388377, Final residual = 1.48379e-06, No Iterations 3
DICPCG:  Solving for p, Initial residual = 0.0273755, Final residual = 9.57686e-07, No Iterations 295
time step continuity errors : sum local = 1.53585e-09, global = 3.83332e-12, cumulative = -4.48843e-09
DICPCG:  Solving for p, Initial residual = 0.00327052, Final residual = 9.80196e-07, No Iterations 56
time step continuity errors : sum local = 1.56984e-09, global = -9.97418e-11, cumulative = -4.58817e-09
ExecutionTime = 256.55 s  ClockTime = 303 s

Time = 0.5

Courant Number mean: 0.296344 max: 1.0432
smoothSolver:  Solving for Ux, Initial residual = 0.00352229, Final residual = 9.85744e-06, No Iterations 2
smoothSolver:  Solving for Uy, Initial residual = 0.00387911, Final residual = 1.46967e-06, No Iterations 3
DICPCG:  Solving for p, Initial residual = 0.0272588, Final residual = 9.81948e-07, No Iterations 295
time step continuity errors : sum local = 1.57184e-09, global = 2.69172e-12, cumulative = -4.58548e-09
DICPCG:  Solving for p, Initial residual = 0.0032968, Final residual = 9.65424e-07, No Iterations 72
time step continuity errors : sum local = 1.54558e-09, global = -3.73031e-11, cumulative = -4.62278e-09
ExecutionTime = 256.65 s  ClockTime = 304 s

End

Finalising parallel run
